24906268
  -OEChem-03202504033D

 29 31  0     0  0  0  0  0  0999 V2000
    4.3481   -1.5302   -0.0560 O   0  0  0  0  0  0  0  0  0  0  0  0
   -1.9122    2.0269    0.0525 O   0  0  0  0  0  0  0  0  0  0  0  0
    0.4305    2.3258    0.1083 N   0  0  0  0  0  0  0  0  0  0  0  0
   -3.3958   -1.3597    0.8525 N   0  0  0  0  0  0  0  0  0  0  0  0
   -4.8697   -0.3538   -0.4694 N   0  0  0  0  0  0  0  0  0  0  0  0
    1.1223    0.1359   -0.0093 C   0  0  0  0  0  0  0  0  0  0  0  0
    1.5360    1.4686    0.0754 C   0  0  0  0  0  0  0  0  0  0  0  0
   -0.3360    0.1736   -0.0302 C   0  0  0  0  0  0  0  0  0  0  0  0
   -0.7689    1.6091    0.0471 C   0  0  0  0  0  0  0  0  0  0  0  0
    2.0486   -0.8889   -0.0553 C   0  0  0  0  0  0  0  0  0  0  0  0
    2.8689    1.8279    0.1173 C   0  0  0  0  0  0  0  0  0  0  0  0
   -1.1930   -0.8465   -0.1035 C   0  0  0  0  0  0  0  0  0  0  0  0
    3.4046   -0.5470   -0.0143 C   0  0  0  0  0  0  0  0  0  0  0  0
    3.8106    0.7983    0.0712 C   0  0  0  0  0  0  0  0  0  0  0  0
   -2.6636   -0.7398   -0.1206 C   0  0  0  0  0  0  0  0  0  0  0  0
   -3.5952   -0.1261   -0.9246 C   0  0  0  0  0  0  0  0  0  0  0  0
   -4.7144   -1.1002    0.6015 C   0  0  0  0  0  0  0  0  0  0  0  0
    3.8792   -2.8738   -0.1424 C   0  0  0  0  0  0  0  0  0  0  0  0
    0.5059    3.3343    0.1683 H   0  0  0  0  0  0  0  0  0  0  0  0
    1.6794   -1.9047   -0.1207 H   0  0  0  0  0  0  0  0  0  0  0  0
    3.1800    2.8642    0.1831 H   0  0  0  0  0  0  0  0  0  0  0  0
   -0.8092   -1.8643   -0.1093 H   0  0  0  0  0  0  0  0  0  0  0  0
    4.8698    1.0423    0.1022 H   0  0  0  0  0  0  0  0  0  0  0  0
   -3.0343   -1.9104    1.6204 H   0  0  0  0  0  0  0  0  0  0  0  0
   -3.4178    0.4653   -1.8117 H   0  0  0  0  0  0  0  0  0  0  0  0
   -5.5048   -1.4809    1.2325 H   0  0  0  0  0  0  0  0  0  0  0  0
    4.7608   -3.5227   -0.1663 H   0  0  0  0  0  0  0  0  0  0  0  0
    3.3289   -3.0500   -1.0730 H   0  0  0  0  0  0  0  0  0  0  0  0
    3.2998   -3.1565    0.7431 H   0  0  0  0  0  0  0  0  0  0  0  0
  1 13  1  0  0  0  0
  1 18  1  0  0  0  0
  2  9  2  0  0  0  0
  3  7  1  0  0  0  0
  3  9  1  0  0  0  0
  3 19  1  0  0  0  0
  4 15  1  0  0  0  0
  4 17  1  0  0  0  0
  4 24  1  0  0  0  0
  5 16  1  0  0  0  0
  5 17  2  0  0  0  0
  6  7  2  0  0  0  0
  6  8  1  0  0  0  0
  6 10  1  0  0  0  0
  7 11  1  0  0  0  0
  8  9  1  0  0  0  0
  8 12  2  3  0  0  0
 10 13  2  0  0  0  0
 10 20  1  0  0  0  0
 11 14  2  0  0  0  0
 11 21  1  0  0  0  0
 12 15  1  0  0  0  0
 12 22  1  0  0  0  0
 13 14  1  0  0  0  0
 14 23  1  0  0  0  0
 15 16  2  0  0  0  0
 16 25  1  0  0  0  0
 17 26  1  0  0  0  0
 18 27  1  0  0  0  0
 18 28  1  0  0  0  0
 18 29  1  0  0  0  0
M  END
> <PUBCHEM_COMPOUND_CID>
24906268

> <PUBCHEM_CONFORMER_RMSD>
0.6

> <PUBCHEM_CONFORMER_DIVERSEORDER>
2
4
1
3

> <PUBCHEM_MMFF94_PARTIAL_CHARGES>
26
1 -0.36
10 -0.15
11 -0.15
12 -0.11
13 0.08
14 -0.15
15 -0.2
16 0.08
17 0.04
18 0.28
19 0.37
2 -0.57
20 0.15
21 0.15
22 0.15
23 0.15
24 0.27
25 0.15
26 0.15
3 -0.55
4 0.03
5 -0.57
6 0.03
7 0.12
8 -0.01
9 0.62

> <PUBCHEM_EFFECTIVE_ROTOR_COUNT>
2.2

> <PUBCHEM_PHARMACOPHORE_FEATURES>
8
1 1 acceptor
1 2 acceptor
1 3 donor
1 4 donor
3 4 5 17 cation
5 3 6 7 8 9 rings
5 4 5 15 16 17 rings
6 6 7 10 11 13 14 rings

> <PUBCHEM_HEAVY_ATOM_COUNT>
18

> <PUBCHEM_ATOM_DEF_STEREO_COUNT>
0

> <PUBCHEM_ATOM_UDEF_STEREO_COUNT>
0

> <PUBCHEM_BOND_DEF_STEREO_COUNT>
0

> <PUBCHEM_BOND_UDEF_STEREO_COUNT>
1

> <PUBCHEM_ISOTOPIC_ATOM_COUNT>
0

> <PUBCHEM_COMPONENT_COUNT>
1

> <PUBCHEM_CACTVS_TAUTO_COUNT>
7

> <PUBCHEM_CONFORMER_ID>
017C0A1C00000002

> <PUBCHEM_MMFF94_ENERGY>
63.4895

> <PUBCHEM_FEATURE_SELFOVERLAP>
40.685

> <PUBCHEM_SHAPE_FINGERPRINT>
10618630 7 18410575097548117349
10967382 1 18339360876574091484
11471102 20 18338794623416448661
11543360 7 15936699241025818638
12032990 46 18409168809317572669
12236239 1 17632299016912206535
12553582 1 18342451547999555022
12616999 72 18041568052280607020
13134695 92 18201994477932492397
13140716 1 17837767099287870800
13544653 18 18409731776609105879
13675066 3 18260827163375211193
14115302 16 17749116624708577167
14252887 29 18409729603450625856
14790565 3 17690002657926796212
14866123 147 17763466119044809123
15042514 8 18051416158533985848
15196674 1 18411136922536735037
15352361 1 18338516339943648494
15442244 35 18341052917278896160
16945 1 18268707397339527308
18186145 218 17676479558230935863
193927 3 18339932515246859406
200 152 18131064944206386565
20281475 54 18271804665797021975
20645477 70 18409443704446993214
20871998 22 18411702080024108272
21267235 1 18411707573566958718
21279426 13 18263919948087776997
21501502 16 18341057324205589520
21501925 9 18412256229937621904
221490 88 18408888429874137512
22182313 1 18264467577502885436
23175994 123 18334013904568484821
23184049 59 18201442514415327927
23559900 14 18335698360439866912
26918003 58 18260542363724581003
2748010 2 18339631270467048572
2871803 45 18261107456909023802
3091708 16 8921879927122978984
312423 11 18339939129443409844
335352 9 18267021653067594981
33824 294 18410853304687783466
3421961 26 18412261731780418978
34934 24 18198335350489898036
465052 167 18271814544100977559
5104073 3 18341890741202861160
5281201 14 17894910745586069637
7364860 26 18341610477549605296
8809292 202 18187367679100866347
9709674 26 18334296512873586907

> <PUBCHEM_SHAPE_MULTIPOLES>
343.75
9.24
2.44
0.71
4.67
0.11
-0.01
5.03
0
-2.29
0.1
0.43
0.08
0.45

> <PUBCHEM_SHAPE_SELFOVERLAP>
763.909

> <PUBCHEM_SHAPE_VOLUME>
186.5

> <PUBCHEM_COORDINATE_TYPE>
2
5
10

$$$$
