53235510
  -OEChem-03202500343D

 69 72  0     0  0  0  0  0  0999 V2000
    0.6980   -0.7695    2.4879 Cl  0  0  0  0  0  0  0  0  0  0  0  0
    2.3056   -3.0014   -2.2068 Cl  0  0  0  0  0  0  0  0  0  0  0  0
   -0.2756   -4.4613   -1.9920 O   0  0  0  0  0  0  0  0  0  0  0  0
   -1.6789   -2.5151    2.0979 O   0  0  0  0  0  0  0  0  0  0  0  0
    3.5305   -1.9470    2.1560 O   0  0  0  0  0  0  0  0  0  0  0  0
   -6.0762    0.9845    0.1433 N   0  0  0  0  0  0  0  0  0  0  0  0
   -3.2995    1.6219   -0.0640 N   0  0  0  0  0  0  0  0  0  0  0  0
    2.0019    3.3527   -0.5664 N   0  0  0  0  0  0  0  0  0  0  0  0
    4.2630    3.1749   -1.2689 N   0  0  0  0  0  0  0  0  0  0  0  0
    4.6647   -0.3020    0.9219 N   0  0  0  0  0  0  0  0  0  0  0  0
    5.6081    1.3246   -0.5111 N   0  0  0  0  0  0  0  0  0  0  0  0
    2.5659   -1.1993    0.1789 N   0  0  0  0  0  0  0  0  0  0  0  0
   -5.2440    0.3547   -0.8891 C   0  0  0  0  0  0  0  0  0  0  0  0
   -5.2771    1.2232    1.3517 C   0  0  0  0  0  0  0  0  0  0  0  0
   -4.0586    1.2487   -1.2615 C   0  0  0  0  0  0  0  0  0  0  0  0
   -4.0938    2.1469    1.0538 C   0  0  0  0  0  0  0  0  0  0  0  0
   -7.2338    0.1456    0.4514 C   0  0  0  0  0  0  0  0  0  0  0  0
   -1.9745    2.0542   -0.1889 C   0  0  0  0  0  0  0  0  0  0  0  0
   -8.0966   -0.0730   -0.7799 C   0  0  0  0  0  0  0  0  0  0  0  0
   -1.0161    1.2116   -0.7523 C   0  0  0  0  0  0  0  0  0  0  0  0
   -1.6120    3.3277    0.2497 C   0  0  0  0  0  0  0  0  0  0  0  0
    0.3046    1.6424   -0.8769 C   0  0  0  0  0  0  0  0  0  0  0  0
   -0.2912    3.7586    0.1252 C   0  0  0  0  0  0  0  0  0  0  0  0
    0.6670    2.9160   -0.4382 C   0  0  0  0  0  0  0  0  0  0  0  0
    3.2340    2.6703   -0.5571 C   0  0  0  0  0  0  0  0  0  0  0  0
    3.3139    1.5140    0.1918 C   0  0  0  0  0  0  0  0  0  0  0  0
    4.5378    0.8767    0.1774 C   0  0  0  0  0  0  0  0  0  0  0  0
    5.4038    2.4623   -1.2021 C   0  0  0  0  0  0  0  0  0  0  0  0
    3.5578   -1.2124    1.1675 C   0  0  0  0  0  0  0  0  0  0  0  0
    1.3774   -1.9678    0.1376 C   0  0  0  0  0  0  0  0  0  0  0  0
    6.0127   -0.7063    1.4272 C   0  0  0  0  0  0  0  0  0  0  0  0
    0.4343   -1.8503    1.1585 C   0  0  0  0  0  0  0  0  0  0  0  0
    1.1491   -2.8416   -0.9256 C   0  0  0  0  0  0  0  0  0  0  0  0
   -0.0222   -3.5979   -0.9676 C   0  0  0  0  0  0  0  0  0  0  0  0
   -0.7369   -2.6068    1.1166 C   0  0  0  0  0  0  0  0  0  0  0  0
   -0.9651   -3.4805    0.0534 C   0  0  0  0  0  0  0  0  0  0  0  0
   -0.9741   -3.9392   -3.1200 C   0  0  0  0  0  0  0  0  0  0  0  0
   -2.7042   -1.5402    1.9210 C   0  0  0  0  0  0  0  0  0  0  0  0
   -5.8012    0.1965   -1.8178 H   0  0  0  0  0  0  0  0  0  0  0  0
   -4.8780   -0.6242   -0.5529 H   0  0  0  0  0  0  0  0  0  0  0  0
   -4.9143    0.2764    1.7695 H   0  0  0  0  0  0  0  0  0  0  0  0
   -5.8960    1.7002    2.1215 H   0  0  0  0  0  0  0  0  0  0  0  0
   -4.4126    2.1589   -1.7626 H   0  0  0  0  0  0  0  0  0  0  0  0
   -3.4320    0.7069   -1.9794 H   0  0  0  0  0  0  0  0  0  0  0  0
   -3.4877    2.2186    1.9658 H   0  0  0  0  0  0  0  0  0  0  0  0
   -4.4668    3.1500    0.8098 H   0  0  0  0  0  0  0  0  0  0  0  0
   -7.8492    0.6492    1.2072 H   0  0  0  0  0  0  0  0  0  0  0  0
   -6.9359   -0.8244    0.8691 H   0  0  0  0  0  0  0  0  0  0  0  0
   -8.2955    0.8653   -1.3090 H   0  0  0  0  0  0  0  0  0  0  0  0
   -7.6558   -0.7901   -1.4789 H   0  0  0  0  0  0  0  0  0  0  0  0
   -9.0649   -0.4877   -0.4776 H   0  0  0  0  0  0  0  0  0  0  0  0
   -1.2788    0.2139   -1.0946 H   0  0  0  0  0  0  0  0  0  0  0  0
   -2.3318    4.0191    0.6778 H   0  0  0  0  0  0  0  0  0  0  0  0
    1.0227    0.9754   -1.3451 H   0  0  0  0  0  0  0  0  0  0  0  0
   -0.0202    4.7542    0.4671 H   0  0  0  0  0  0  0  0  0  0  0  0
    2.0747    4.2915   -0.9487 H   0  0  0  0  0  0  0  0  0  0  0  0
    2.4921    1.1951    0.8188 H   0  0  0  0  0  0  0  0  0  0  0  0
    6.2468    2.8448   -1.7643 H   0  0  0  0  0  0  0  0  0  0  0  0
    5.9408   -1.6003    2.0514 H   0  0  0  0  0  0  0  0  0  0  0  0
    6.6555   -0.9258    0.5696 H   0  0  0  0  0  0  0  0  0  0  0  0
    6.4286    0.1173    2.0145 H   0  0  0  0  0  0  0  0  0  0  0  0
    2.9275   -0.9696   -0.7450 H   0  0  0  0  0  0  0  0  0  0  0  0
   -1.8776   -4.0710    0.0213 H   0  0  0  0  0  0  0  0  0  0  0  0
   -0.4608   -3.0665   -3.5356 H   0  0  0  0  0  0  0  0  0  0  0  0
   -1.0161   -4.7174   -3.8869 H   0  0  0  0  0  0  0  0  0  0  0  0
   -1.9974   -3.6701   -2.8393 H   0  0  0  0  0  0  0  0  0  0  0  0
   -3.3995   -1.6201    2.7610 H   0  0  0  0  0  0  0  0  0  0  0  0
   -3.2543   -1.7264    0.9936 H   0  0  0  0  0  0  0  0  0  0  0  0
   -2.2833   -0.5310    1.9123 H   0  0  0  0  0  0  0  0  0  0  0  0
  1 32  1  0  0  0  0
  2 33  1  0  0  0  0
  3 34  1  0  0  0  0
  3 37  1  0  0  0  0
  4 35  1  0  0  0  0
  4 38  1  0  0  0  0
  5 29  2  0  0  0  0
  6 13  1  0  0  0  0
  6 14  1  0  0  0  0
  6 17  1  0  0  0  0
  7 15  1  0  0  0  0
  7 16  1  0  0  0  0
  7 18  1  0  0  0  0
  8 24  1  0  0  0  0
  8 25  1  0  0  0  0
  8 56  1  0  0  0  0
  9 25  1  0  0  0  0
  9 28  2  0  0  0  0
 10 27  1  0  0  0  0
 10 29  1  0  0  0  0
 10 31  1  0  0  0  0
 11 27  2  0  0  0  0
 11 28  1  0  0  0  0
 12 29  1  0  0  0  0
 12 30  1  0  0  0  0
 12 62  1  0  0  0  0
 13 15  1  0  0  0  0
 13 39  1  0  0  0  0
 13 40  1  0  0  0  0
 14 16  1  0  0  0  0
 14 41  1  0  0  0  0
 14 42  1  0  0  0  0
 15 43  1  0  0  0  0
 15 44  1  0  0  0  0
 16 45  1  0  0  0  0
 16 46  1  0  0  0  0
 17 19  1  0  0  0  0
 17 47  1  0  0  0  0
 17 48  1  0  0  0  0
 18 20  2  0  0  0  0
 18 21  1  0  0  0  0
 19 49  1  0  0  0  0
 19 50  1  0  0  0  0
 19 51  1  0  0  0  0
 20 22  1  0  0  0  0
 20 52  1  0  0  0  0
 21 23  2  0  0  0  0
 21 53  1  0  0  0  0
 22 24  2  0  0  0  0
 22 54  1  0  0  0  0
 23 24  1  0  0  0  0
 23 55  1  0  0  0  0
 25 26  2  0  0  0  0
 26 27  1  0  0  0  0
 26 57  1  0  0  0  0
 28 58  1  0  0  0  0
 30 32  2  0  0  0  0
 30 33  1  0  0  0  0
 31 59  1  0  0  0  0
 31 60  1  0  0  0  0
 31 61  1  0  0  0  0
 32 35  1  0  0  0  0
 33 34  2  0  0  0  0
 34 36  1  0  0  0  0
 35 36  2  0  0  0  0
 36 63  1  0  0  0  0
 37 64  1  0  0  0  0
 37 65  1  0  0  0  0
 37 66  1  0  0  0  0
 38 67  1  0  0  0  0
 38 68  1  0  0  0  0
 38 69  1  0  0  0  0
M  END
> <PUBCHEM_COMPOUND_CID>
53235510

> <PUBCHEM_CONFORMER_RMSD>
1.2

> <PUBCHEM_CONFORMER_DIVERSEORDER>
5
122
91
119
107
33
93
34
60
92
97
66
65
106
24
46
30
96
125
115
117
85
52
88
133
55
25
112
44
108
99
10
83
103
35
74
71
31
79
17
43
70
72
78
109
100
3
98
47
84
49
48
86
26
121
87
14
129
128
15
53
40
124
77
73
29
130
63
7
111
51
20
131
50
13
62
105
127
101
41
12
102
22
57
104
58
39
16
54
81
118
94
68
59
113
19
123
75
80
23
11
132
114
37
2
82
21
36
126
38
116
64
76
9
18
120
45
6
134
110
56
8
136
32
89
28
4
95
61
42
67
1
90
69
135
27

> <PUBCHEM_MMFF94_PARTIAL_CHARGES>
46
1 -0.18
10 -0.48
11 -0.62
12 -0.55
13 0.27
14 0.27
15 0.37
16 0.37
17 0.27
18 0.1
2 -0.18
20 -0.15
21 -0.15
22 -0.15
23 -0.15
24 0.1
25 0.41
26 -0.15
27 0.43
28 0.47
29 0.69
3 -0.36
30 0.12
31 0.3
32 0.18
33 0.18
34 0.08
35 0.08
36 -0.15
37 0.28
38 0.28
4 -0.36
5 -0.57
52 0.15
53 0.15
54 0.15
55 0.15
56 0.4
57 0.15
58 0.15
6 -0.81
62 0.37
63 0.15
7 -0.84
8 -0.6
9 -0.62

> <PUBCHEM_EFFECTIVE_ROTOR_COUNT>
11.2

> <PUBCHEM_PHARMACOPHORE_FEATURES>
13
1 12 donor
1 3 acceptor
1 4 acceptor
1 5 acceptor
1 6 cation
1 7 cation
1 8 cation
1 8 donor
3 9 11 28 cation
6 18 20 21 22 23 24 rings
6 30 32 33 34 35 36 rings
6 6 7 13 14 15 16 rings
6 9 11 25 26 27 28 rings

> <PUBCHEM_HEAVY_ATOM_COUNT>
38

> <PUBCHEM_ATOM_DEF_STEREO_COUNT>
0

> <PUBCHEM_ATOM_UDEF_STEREO_COUNT>
0

> <PUBCHEM_BOND_DEF_STEREO_COUNT>
0

> <PUBCHEM_BOND_UDEF_STEREO_COUNT>
0

> <PUBCHEM_ISOTOPIC_ATOM_COUNT>
0

> <PUBCHEM_COMPONENT_COUNT>
1

> <PUBCHEM_CACTVS_TAUTO_COUNT>
6

> <PUBCHEM_CONFORMER_ID>
032C4F3600000005

> <PUBCHEM_MMFF94_ENERGY>
173.8762

> <PUBCHEM_FEATURE_SELFOVERLAP>
65.975

> <PUBCHEM_SHAPE_FINGERPRINT>
10006869 2 18261106370477581106
10985338 15 17774139323313293050
11421498 54 17845936212984319601
11513181 2 18272098183915103662
12156800 1 17682718277074365774
13165054 235 18339908369378182487
13383661 66 16840805448409766262
1361 2 18342742897105734839
13692114 37 18200021979836323663
13751561 76 18263096456259020627
14725015 67 18188479177750465096
15297060 5 18059849597840361042
15664445 248 17832142727839022901
15927050 60 17980196714347783668
15968369 153 17837764887432298211
15968369 26 18048039575779210276
161222 619 18337689545996392795
19319366 153 17894908542858748888
20028762 73 18342176622478341717
20764821 26 18408605893708019997
20771845 140 18060695083511266591
21133410 90 17632009879054652936
21197605 99 18336270132388256051
21344244 181 18130804342928860998
25019877 29 17916849232856129582
27425 322 16009315438595277361
392239 28 18189055300568712041
6287921 2 17912083850112116809

> <PUBCHEM_SHAPE_MULTIPOLES>
733.29
13.6
5.83
2.13
15.78
2.39
-0.06
-7.17
0.68
-2.28
-3.01
-0.4
2.37
-1.48

> <PUBCHEM_SHAPE_SELFOVERLAP>
1541.75

> <PUBCHEM_SHAPE_VOLUME>
414

> <PUBCHEM_COORDINATE_TYPE>
2
5
10

$$$$
