6303347
  -OEChem-03202503363D

 48 52  0     0  0  0  0  0  0999 V2000
   -8.1411   -0.6275   -1.1334 Cl  0  0  0  0  0  0  0  0  0  0  0  0
   -8.4612   -0.7033    2.0862 Cl  0  0  0  0  0  0  0  0  0  0  0  0
    2.8910    2.4299    0.1468 O   0  0  0  0  0  0  0  0  0  0  0  0
   -1.8827    0.9014    1.5027 O   0  0  0  0  0  0  0  0  0  0  0  0
    3.6849    0.3074    0.1138 N   0  0  0  0  0  0  0  0  0  0  0  0
   -3.2498    0.5833   -0.3928 N   0  0  0  0  0  0  0  0  0  0  0  0
   -2.9695    0.6504   -1.7343 N   0  0  0  0  0  0  0  0  0  0  0  0
    4.7018   -1.6822    0.1358 N   0  0  0  0  0  0  0  0  0  0  0  0
    2.0868   -4.1852   -0.5935 N   0  0  0  0  0  0  0  0  0  0  0  0
    1.3251    0.6420   -0.3206 C   0  0  0  0  0  0  0  0  0  0  0  0
    3.5484   -1.0650   -0.0346 C   0  0  0  0  0  0  0  0  0  0  0  0
    1.1911   -0.8120   -0.4740 C   0  0  0  0  0  0  0  0  0  0  0  0
    5.0218    0.5526    0.3978 C   0  0  0  0  0  0  0  0  0  0  0  0
    2.6542    1.2424   -0.0050 C   0  0  0  0  0  0  0  0  0  0  0  0
   -1.0249    1.1593   -0.7421 C   0  0  0  0  0  0  0  0  0  0  0  0
    2.2693   -1.6165   -0.3331 C   0  0  0  0  0  0  0  0  0  0  0  0
    0.3234    1.5299   -0.4421 C   0  0  0  0  0  0  0  0  0  0  0  0
    5.6201   -0.7044    0.4022 C   0  0  0  0  0  0  0  0  0  0  0  0
   -1.6599    1.0174   -1.9170 C   0  0  0  0  0  0  0  0  0  0  0  0
   -2.0724    0.8767    0.2973 C   0  0  0  0  0  0  0  0  0  0  0  0
   -0.1914   -1.3436   -0.7910 C   0  0  0  0  0  0  0  0  0  0  0  0
    5.7570    1.7206    0.6471 C   0  0  0  0  0  0  0  0  0  0  0  0
   -4.4726    0.2809    0.1712 C   0  0  0  0  0  0  0  0  0  0  0  0
    6.9969   -0.8245    0.6604 C   0  0  0  0  0  0  0  0  0  0  0  0
   -1.1362    1.2277   -3.2946 C   0  0  0  0  0  0  0  0  0  0  0  0
    7.1261    1.5853    0.9026 C   0  0  0  0  0  0  0  0  0  0  0  0
    7.7384    0.3339    0.9096 C   0  0  0  0  0  0  0  0  0  0  0  0
   -5.5830    0.0043   -0.6396 C   0  0  0  0  0  0  0  0  0  0  0  0
   -4.6244    0.2457    1.5650 C   0  0  0  0  0  0  0  0  0  0  0  0
    2.1686   -3.0339   -0.4769 C   0  0  0  0  0  0  0  0  0  0  0  0
   -6.8188   -0.3008   -0.0688 C   0  0  0  0  0  0  0  0  0  0  0  0
   -5.8599   -0.0594    2.1358 C   0  0  0  0  0  0  0  0  0  0  0  0
   -6.9571   -0.3328    1.3189 C   0  0  0  0  0  0  0  0  0  0  0  0
    0.4765    2.5947   -0.2877 H   0  0  0  0  0  0  0  0  0  0  0  0
   -3.6750    0.8588   -2.4277 H   0  0  0  0  0  0  0  0  0  0  0  0
   -0.5179   -1.0873   -1.7966 H   0  0  0  0  0  0  0  0  0  0  0  0
   -0.9053   -1.1865    0.0145 H   0  0  0  0  0  0  0  0  0  0  0  0
   -0.1780   -2.4401   -0.8449 H   0  0  0  0  0  0  0  0  0  0  0  0
    5.2999    2.7034    0.6461 H   0  0  0  0  0  0  0  0  0  0  0  0
    7.4796   -1.7968    0.6675 H   0  0  0  0  0  0  0  0  0  0  0  0
   -1.2318    0.3102   -3.8842 H   0  0  0  0  0  0  0  0  0  0  0  0
   -0.0802    1.5151   -3.2927 H   0  0  0  0  0  0  0  0  0  0  0  0
   -1.6977    2.0208   -3.7989 H   0  0  0  0  0  0  0  0  0  0  0  0
    7.7214    2.4736    1.0991 H   0  0  0  0  0  0  0  0  0  0  0  0
    8.8035    0.2561    1.1108 H   0  0  0  0  0  0  0  0  0  0  0  0
   -5.4968    0.0194   -1.7234 H   0  0  0  0  0  0  0  0  0  0  0  0
   -3.8317    0.4455    2.2717 H   0  0  0  0  0  0  0  0  0  0  0  0
   -5.9515   -0.0796    3.2191 H   0  0  0  0  0  0  0  0  0  0  0  0
  1 31  1  0  0  0  0
  2 33  1  0  0  0  0
  3 14  2  0  0  0  0
  4 20  2  0  0  0  0
  5 11  1  0  0  0  0
  5 13  1  0  0  0  0
  5 14  1  0  0  0  0
  6  7  1  0  0  0  0
  6 20  1  0  0  0  0
  6 23  1  0  0  0  0
  7 19  1  0  0  0  0
  7 35  1  0  0  0  0
  8 11  2  0  0  0  0
  8 18  1  0  0  0  0
  9 30  3  0  0  0  0
 10 12  1  0  0  0  0
 10 14  1  0  0  0  0
 10 17  2  0  0  0  0
 11 16  1  0  0  0  0
 12 16  2  0  0  0  0
 12 21  1  0  0  0  0
 13 18  1  0  0  0  0
 13 22  2  0  0  0  0
 15 17  1  0  0  0  0
 15 19  2  0  0  0  0
 15 20  1  0  0  0  0
 16 30  1  0  0  0  0
 17 34  1  0  0  0  0
 18 24  2  0  0  0  0
 19 25  1  0  0  0  0
 21 36  1  0  0  0  0
 21 37  1  0  0  0  0
 21 38  1  0  0  0  0
 22 26  1  0  0  0  0
 22 39  1  0  0  0  0
 23 28  2  0  0  0  0
 23 29  1  0  0  0  0
 24 27  1  0  0  0  0
 24 40  1  0  0  0  0
 25 41  1  0  0  0  0
 25 42  1  0  0  0  0
 25 43  1  0  0  0  0
 26 27  2  0  0  0  0
 26 44  1  0  0  0  0
 27 45  1  0  0  0  0
 28 31  1  0  0  0  0
 28 46  1  0  0  0  0
 29 32  2  0  0  0  0
 29 47  1  0  0  0  0
 31 33  2  0  0  0  0
 32 33  1  0  0  0  0
 32 48  1  0  0  0  0
M  END
> <PUBCHEM_COMPOUND_CID>
6303347

> <PUBCHEM_CONFORMER_RMSD>
0.8

> <PUBCHEM_CONFORMER_DIVERSEORDER>
1
3
5
7
2
4
6
8

> <PUBCHEM_MMFF94_PARTIAL_CHARGES>
42
1 -0.18
10 0.01
11 0.14
12 -0.14
13 -0.15
14 0.56
15 0.01
16 0.11
17 -0.15
18 0.23
19 -0.04
2 -0.18
20 0.62
21 0.14
22 -0.15
23 0.12
24 -0.15
25 0.14
26 -0.15
27 -0.15
28 -0.15
29 -0.15
3 -0.57
30 0.49
31 0.18
32 -0.15
33 0.18
34 0.15
35 0.4
39 0.15
4 -0.57
40 0.15
44 0.15
45 0.15
46 0.15
47 0.15
48 0.15
5 0.29
6 -0.16
7 -0.52
8 -0.57
9 -0.56

> <PUBCHEM_EFFECTIVE_ROTOR_COUNT>
2

> <PUBCHEM_PHARMACOPHORE_FEATURES>
9
1 3 acceptor
1 4 acceptor
1 7 donor
1 9 acceptor
5 5 8 11 13 18 rings
5 6 7 15 19 20 rings
6 13 18 22 24 26 27 rings
6 23 28 29 31 32 33 rings
6 5 10 11 12 14 16 rings

> <PUBCHEM_HEAVY_ATOM_COUNT>
33

> <PUBCHEM_ATOM_DEF_STEREO_COUNT>
0

> <PUBCHEM_ATOM_UDEF_STEREO_COUNT>
0

> <PUBCHEM_BOND_DEF_STEREO_COUNT>
1

> <PUBCHEM_BOND_UDEF_STEREO_COUNT>
0

> <PUBCHEM_ISOTOPIC_ATOM_COUNT>
0

> <PUBCHEM_COMPONENT_COUNT>
1

> <PUBCHEM_CACTVS_TAUTO_COUNT>
6

> <PUBCHEM_CONFORMER_ID>
00602E7300000001

> <PUBCHEM_MMFF94_ENERGY>
117.0741

> <PUBCHEM_FEATURE_SELFOVERLAP>
45.887

> <PUBCHEM_SHAPE_FINGERPRINT>
10 15 18040992973629815384
106641 1 18335702771439994936
10930396 42 17313371392361809688
11421498 54 17560520595511090610
11607047 141 16413536431707902447
11719270 70 18410291415369842002
11963148 33 17022615399087935587
12035758 1 18335128818102179488
12202916 173 17821727243294503387
12236239 1 17489869327846715685
12596602 18 17561369452699843507
12741549 16 18113893857936245141
12857493 111 17530681013669759205
13402501 40 18113902653996644226
13540713 4 18045496417873329870
13782708 43 17823135618894964554
13811026 1 18113614564733114275
13914758 101 12757142455358066511
14028597 1 17632582617264648842
14251764 18 17703790340491140769
14294032 229 15482665754913370845
14394314 77 18060425686494607753
14849402 71 17917426596561826840
14856354 85 16487250015628769181
15188451 53 15502091951758106930
15419008 91 17023448867846729869
15510800 12 17749406862188958979
15849732 13 13551190000362077186
19303781 99 16952263247292296683
19315958 150 18341900654467667779
19319366 153 18060414703619821878
20105231 36 18341335501507559086
2026 5 17458346351813500323
20505436 4 16988841679069004926
20554085 129 13758076264386719757
21267235 1 18340486678392960164
21521721 280 18272647987437478464
21623969 137 18408603643403730214
21781051 124 18187378623316060566
22149856 69 18338248063200855305
22224240 67 18343017813514436066
22956985 138 17680421144836530138
23559900 14 15792023332322270253
23576562 1 9439102252943609633
3004659 81 14201399412920051005
3178227 256 18411702106052505104
3383291 50 17240773908587528107
4093350 32 16773803567580914318
4340502 62 18272657852471039319
5104073 3 18191586354534039640
5758199 1 18060137661075247282
58260988 521 18259984860481034358
59682541 35 18335420200829723648
6126387 218 18408602544952379513
6703917 75 14117525376055665813
86090 222 18115045016993817275
9689198 14 15052014575930327691

> <PUBCHEM_SHAPE_MULTIPOLES>
646.22
22.81
2.31
1.85
14.62
2.06
-0.59
1.85
12.03
-3.52
-0.72
3.29
-0.49
1.59

> <PUBCHEM_SHAPE_SELFOVERLAP>
1438.619

> <PUBCHEM_SHAPE_VOLUME>
347

> <PUBCHEM_COORDINATE_TYPE>
2
5
10

$$$$
