44355298
  -OEChem-03202500163D

 68 74  0     1  0  0  0  0  0999 V2000
    4.4018    0.2249    0.8584 O   0  0  0  0  0  0  0  0  0  0  0  0
    3.6824    0.5698   -2.0499 O   0  0  0  0  0  0  0  0  0  0  0  0
    5.3797   -2.3065   -0.7011 O   0  0  0  0  0  0  0  0  0  0  0  0
    7.6490    1.0246   -0.4953 O   0  0  0  0  0  0  0  0  0  0  0  0
   -2.8496    2.9149    0.6409 O   0  0  0  0  0  0  0  0  0  0  0  0
   -4.2427   -1.5085    0.4618 O   0  0  0  0  0  0  0  0  0  0  0  0
    3.8017    4.9631    0.4313 O   0  0  0  0  0  0  0  0  0  0  0  0
    0.0371   -6.9740   -0.0551 O   0  0  0  0  0  0  0  0  0  0  0  0
   -5.8693    2.9871   -2.5003 O   0  0  0  0  0  0  0  0  0  0  0  0
   -7.6234   -0.0593   -0.1564 O   0  0  0  0  0  0  0  0  0  0  0  0
    2.0303    0.4161    0.2615 N   0  0  0  0  0  0  0  0  0  0  0  0
    1.1942   -2.2351    0.1540 N   0  0  0  0  0  0  0  0  0  0  0  0
   -3.9152    0.8193    0.5761 N   0  0  0  0  0  0  0  0  0  0  0  0
   -5.2257    1.2199    0.6625 N   0  0  0  0  0  0  0  0  0  0  0  0
    3.3044   -0.3852    0.1546 C   0  0  1  0  0  0  0  0  0  0  0  0
    3.7973   -0.6171   -1.2733 C   0  0  2  0  0  0  0  0  0  0  0  0
    0.7155    0.1037    0.3088 C   0  0  0  0  0  0  0  0  0  0  0  0
    5.2627   -0.9285   -1.0483 C   0  0  1  0  0  0  0  0  0  0  0  0
    5.6292   -0.0692    0.1616 C   0  0  1  0  0  0  0  0  0  0  0  0
   -0.3143    1.0976    0.4153 C   0  0  0  0  0  0  0  0  0  0  0  0
    1.9733    1.7994    0.3422 C   0  0  0  0  0  0  0  0  0  0  0  0
    0.2948   -1.2304    0.2547 C   0  0  0  0  0  0  0  0  0  0  0  0
    0.6102    2.2406    0.4343 C   0  0  0  0  0  0  0  0  0  0  0  0
   -1.6833    0.8498    0.4687 C   0  0  0  0  0  0  0  0  0  0  0  0
   -1.1207   -1.4597    0.3116 C   0  0  0  0  0  0  0  0  0  0  0  0
   -2.1017   -0.4772    0.4149 C   0  0  0  0  0  0  0  0  0  0  0  0
    6.2795    1.2550   -0.2137 C   0  0  0  0  0  0  0  0  0  0  0  0
   -1.0184   -2.9238    0.2247 C   0  0  0  0  0  0  0  0  0  0  0  0
    0.3533   -3.3377    0.1338 C   0  0  0  0  0  0  0  0  0  0  0  0
   -2.8597    1.7018    0.5738 C   0  0  0  0  0  0  0  0  0  0  0  0
    3.0448    2.7055    0.3404 C   0  0  0  0  0  0  0  0  0  0  0  0
   -3.5557   -0.5067    0.4844 C   0  0  0  0  0  0  0  0  0  0  0  0
    0.3885    3.6362    0.5241 C   0  0  0  0  0  0  0  0  0  0  0  0
    2.7710    4.0708    0.4311 C   0  0  0  0  0  0  0  0  0  0  0  0
    1.4641    4.5309    0.5218 C   0  0  0  0  0  0  0  0  0  0  0  0
   -2.0017   -3.9426    0.2163 C   0  0  0  0  0  0  0  0  0  0  0  0
    0.7120   -4.6911    0.0403 C   0  0  0  0  0  0  0  0  0  0  0  0
   -5.7812    1.4168   -0.6698 C   0  0  0  0  0  0  0  0  0  0  0  0
   -1.6330   -5.2890    0.1227 C   0  0  0  0  0  0  0  0  0  0  0  0
   -0.2964   -5.6554    0.0362 C   0  0  0  0  0  0  0  0  0  0  0  0
   -5.3819    2.8026   -1.1769 C   0  0  0  0  0  0  0  0  0  0  0  0
   -7.3029    1.2466   -0.6226 C   0  0  0  0  0  0  0  0  0  0  0  0
    3.1944   -1.2691    0.7749 H   0  0  0  0  0  0  0  0  0  0  0  0
    3.2433   -1.4143   -1.7769 H   0  0  0  0  0  0  0  0  0  0  0  0
    5.8962   -0.7395   -1.9205 H   0  0  0  0  0  0  0  0  0  0  0  0
    6.2776   -0.6189    0.8541 H   0  0  0  0  0  0  0  0  0  0  0  0
    6.2281    1.9605    0.6223 H   0  0  0  0  0  0  0  0  0  0  0  0
    5.8130    1.7219   -1.0857 H   0  0  0  0  0  0  0  0  0  0  0  0
    2.1670   -2.2890   -0.0623 H   0  0  0  0  0  0  0  0  0  0  0  0
    4.0679    2.3936    0.2483 H   0  0  0  0  0  0  0  0  0  0  0  0
   -0.6187    4.0341    0.5963 H   0  0  0  0  0  0  0  0  0  0  0  0
    4.0645    0.3838   -2.9244 H   0  0  0  0  0  0  0  0  0  0  0  0
    6.3193   -2.4819   -0.5216 H   0  0  0  0  0  0  0  0  0  0  0  0
    1.2652    5.5976    0.5921 H   0  0  0  0  0  0  0  0  0  0  0  0
   -3.0564   -3.6959    0.2821 H   0  0  0  0  0  0  0  0  0  0  0  0
    1.7584   -4.9757   -0.0276 H   0  0  0  0  0  0  0  0  0  0  0  0
   -5.7362    0.4824    1.1479 H   0  0  0  0  0  0  0  0  0  0  0  0
    8.0441    1.8840   -0.7207 H   0  0  0  0  0  0  0  0  0  0  0  0
   -5.4111    0.6490   -1.3645 H   0  0  0  0  0  0  0  0  0  0  0  0
   -2.4088   -6.0510    0.1182 H   0  0  0  0  0  0  0  0  0  0  0  0
    4.6421    4.4780    0.3632 H   0  0  0  0  0  0  0  0  0  0  0  0
   -4.3009    2.9210   -1.2483 H   0  0  0  0  0  0  0  0  0  0  0  0
   -5.7879    3.5977   -0.5419 H   0  0  0  0  0  0  0  0  0  0  0  0
   -7.7650    1.9779    0.0502 H   0  0  0  0  0  0  0  0  0  0  0  0
   -7.7414    1.3659   -1.6187 H   0  0  0  0  0  0  0  0  0  0  0  0
    1.0052   -7.0521   -0.1074 H   0  0  0  0  0  0  0  0  0  0  0  0
   -5.6051    3.8799   -2.7810 H   0  0  0  0  0  0  0  0  0  0  0  0
   -8.5933   -0.1266   -0.1422 H   0  0  0  0  0  0  0  0  0  0  0  0
  1 15  1  0  0  0  0
  1 19  1  0  0  0  0
  2 16  1  0  0  0  0
  2 52  1  0  0  0  0
  3 18  1  0  0  0  0
  3 53  1  0  0  0  0
  4 27  1  0  0  0  0
  4 58  1  0  0  0  0
  5 30  2  0  0  0  0
  6 32  2  0  0  0  0
  7 34  1  0  0  0  0
  7 61  1  0  0  0  0
  8 40  1  0  0  0  0
  8 66  1  0  0  0  0
  9 41  1  0  0  0  0
  9 67  1  0  0  0  0
 10 42  1  0  0  0  0
 10 68  1  0  0  0  0
 11 15  1  0  0  0  0
 11 17  1  0  0  0  0
 11 21  1  0  0  0  0
 12 22  1  0  0  0  0
 12 29  1  0  0  0  0
 12 49  1  0  0  0  0
 13 14  1  0  0  0  0
 13 30  1  0  0  0  0
 13 32  1  0  0  0  0
 14 38  1  0  0  0  0
 14 57  1  0  0  0  0
 15 16  1  0  0  0  0
 15 43  1  0  0  0  0
 16 18  1  0  0  0  0
 16 44  1  0  0  0  0
 17 20  1  0  0  0  0
 17 22  2  0  0  0  0
 18 19  1  0  0  0  0
 18 45  1  0  0  0  0
 19 27  1  0  0  0  0
 19 46  1  0  0  0  0
 20 23  1  0  0  0  0
 20 24  2  0  0  0  0
 21 23  2  0  0  0  0
 21 31  1  0  0  0  0
 22 25  1  0  0  0  0
 23 33  1  0  0  0  0
 24 26  1  0  0  0  0
 24 30  1  0  0  0  0
 25 26  2  0  0  0  0
 25 28  1  0  0  0  0
 26 32  1  0  0  0  0
 27 47  1  0  0  0  0
 27 48  1  0  0  0  0
 28 29  2  0  0  0  0
 28 36  1  0  0  0  0
 29 37  1  0  0  0  0
 31 34  2  0  0  0  0
 31 50  1  0  0  0  0
 33 35  2  0  0  0  0
 33 51  1  0  0  0  0
 34 35  1  0  0  0  0
 35 54  1  0  0  0  0
 36 39  2  0  0  0  0
 36 55  1  0  0  0  0
 37 40  2  0  0  0  0
 37 56  1  0  0  0  0
 38 41  1  0  0  0  0
 38 42  1  0  0  0  0
 38 59  1  0  0  0  0
 39 40  1  0  0  0  0
 39 60  1  0  0  0  0
 41 62  1  0  0  0  0
 41 63  1  0  0  0  0
 42 64  1  0  0  0  0
 42 65  1  0  0  0  0
M  END
> <PUBCHEM_COMPOUND_CID>
44355298

> <PUBCHEM_CONFORMER_RMSD>
1

> <PUBCHEM_CONFORMER_DIVERSEORDER>
1
4
2
6
5
3
7

> <PUBCHEM_MMFF94_PARTIAL_CHARGES>
55
1 -0.56
10 -0.68
11 -0.04
12 -0.05
13 -0.11
14 -0.64
15 0.54
16 0.28
17 -0.05
18 0.28
19 0.28
2 -0.68
20 -0.01
21 -0.15
22 -0.05
24 0.09
25 -0.01
26 0.09
27 0.28
29 -0.15
3 -0.68
30 0.54
31 -0.15
32 0.54
33 -0.15
34 0.08
35 -0.15
36 -0.15
37 -0.15
38 0.27
39 -0.15
4 -0.68
40 0.08
41 0.28
42 0.28
49 0.27
5 -0.57
50 0.15
51 0.15
52 0.4
53 0.4
54 0.15
55 0.15
56 0.15
57 0.36
58 0.4
6 -0.57
60 0.15
61 0.45
66 0.45
67 0.4
68 0.4
7 -0.53
8 -0.53
9 -0.68

> <PUBCHEM_EFFECTIVE_ROTOR_COUNT>
7.2

> <PUBCHEM_PHARMACOPHORE_FEATURES>
26
1 1 acceptor
1 10 acceptor
1 10 donor
1 11 cation
1 12 cation
1 12 donor
1 14 donor
1 2 acceptor
1 2 donor
1 3 acceptor
1 3 donor
1 4 acceptor
1 4 donor
1 5 acceptor
1 6 acceptor
1 7 donor
1 8 donor
1 9 acceptor
1 9 donor
5 1 15 16 18 19 rings
5 11 17 20 21 23 rings
5 12 22 25 28 29 rings
5 13 24 26 30 32 rings
6 17 20 22 24 25 26 rings
6 21 23 31 33 34 35 rings
6 28 29 36 37 39 40 rings

> <PUBCHEM_HEAVY_ATOM_COUNT>
42

> <PUBCHEM_ATOM_DEF_STEREO_COUNT>
4

> <PUBCHEM_ATOM_UDEF_STEREO_COUNT>
0

> <PUBCHEM_BOND_DEF_STEREO_COUNT>
0

> <PUBCHEM_BOND_UDEF_STEREO_COUNT>
0

> <PUBCHEM_ISOTOPIC_ATOM_COUNT>
0

> <PUBCHEM_COMPONENT_COUNT>
1

> <PUBCHEM_CACTVS_TAUTO_COUNT>
209

> <PUBCHEM_CONFORMER_ID>
02A4CEE200000001

> <PUBCHEM_MMFF94_ENERGY>
159.2957

> <PUBCHEM_FEATURE_SELFOVERLAP>
132.439

> <PUBCHEM_SHAPE_FINGERPRINT>
10050765 1 18050849124610173512
10290309 65 18264208020260861030
10411042 1 17618783553822582643
10930396 42 18197472088634956226
10940486 97 18189625015201405428
1100329 8 18339928215941917656
11062273 19 18120933901997294142
11135926 11 18194403291051305633
11578080 2 17318694197171361798
12058002 1 17271765807910081696
12202916 173 18131355155637558942
12608794 3 18048279432306719528
13140716 1 18123199162222323491
1361 2 18339643343313837930
13642711 20 18266730290664465989
13811026 1 18341896264841805454
13911987 19 18264224542377602332
140371 6 18129964342079274544
14415360 78 18336814377458533837
14725015 67 18126003755357463454
14790565 3 18267595619516905560
15320467 1 18339930428240952170
15439362 3 18340484590211829104
15484559 13 18269271275185603431
15664458 157 18339636858715029103
15890870 6 18408887321455992853
15950262 2 15793171149304391022
19319366 153 18268143171802172111
20028762 73 18273213084557932525
20775438 99 17985243408357193213
21133410 171 17261259038648688746
21859007 373 18115008745520371989
22311459 1 18339364055224716537
22440779 20 16667446897203885338
23559900 14 18343299292575656976
23576562 1 18115597100289212980
25223398 141 18042135421808395975
283562 15 18127417748342333344
3178227 256 18338532880041774905
335352 9 18411419535379345701
4394409 98 18335138665818682748
484989 97 18338519767791339475
563151 97 18197222451354738833
6004065 56 18272647952555948488
6700243 42 16116849488342395063
9961470 85 18127122198425757264

> <PUBCHEM_SHAPE_MULTIPOLES>
785.72
14.19
8
1.04
5.6
10.57
-0.55
-10.88
-5.14
0.31
0.54
0.38
-0.61
2.21

> <PUBCHEM_SHAPE_SELFOVERLAP>
1780.059

> <PUBCHEM_SHAPE_VOLUME>
410.9

> <PUBCHEM_COORDINATE_TYPE>
2
5
10

$$$$
