3078519
  -OEChem-03202507063D

 62 69  0     1  0  0  0  0  0999 V2000
   -1.2195   -1.8817   -1.7913 O   0  0  0  0  0  0  0  0  0  0  0  0
   -4.0335   -1.3418    0.5778 O   0  0  0  0  0  0  0  0  0  0  0  0
    1.4774    4.6877   -0.6384 O   0  0  0  0  0  0  0  0  0  0  0  0
    4.6940    1.8865    0.4695 O   0  0  0  0  0  0  0  0  0  0  0  0
   -1.6236    0.1048   -0.5815 N   0  0  0  0  0  0  0  0  0  0  0  0
    0.7324   -1.7520   -0.5512 N   0  0  0  0  0  0  0  0  0  0  0  0
   -1.5471   -1.8367    1.9430 N   0  0  0  0  0  0  0  0  0  0  0  0
    3.1566    3.6443    0.6045 N   0  0  0  0  0  0  0  0  0  0  0  0
   -2.2276   -1.1114   -1.1308 C   0  0  2  0  0  0  0  0  0  0  0  0
   -2.9854   -2.0070   -0.1108 C   0  0  1  0  0  0  0  0  0  0  0  0
   -0.3406   -2.6143   -0.9686 C   0  0  1  0  0  0  0  0  0  0  0  0
   -2.0878   -2.7153    0.9083 C   0  0  1  0  0  0  0  0  0  0  0  0
   -0.9879   -3.4436    0.1451 C   0  0  0  0  0  0  0  0  0  0  0  0
   -0.3088    0.4749   -0.3719 C   0  0  0  0  0  0  0  0  0  0  0  0
    0.8135   -0.4044   -0.3675 C   0  0  0  0  0  0  0  0  0  0  0  0
    0.0254    1.8487   -0.0626 C   0  0  0  0  0  0  0  0  0  0  0  0
    2.0988    0.2142   -0.0902 C   0  0  0  0  0  0  0  0  0  0  0  0
   -2.2859    1.3177   -0.2879 C   0  0  0  0  0  0  0  0  0  0  0  0
   -3.1571   -0.7789   -2.3238 C   0  0  0  0  0  0  0  0  0  0  0  0
    1.2714    2.4350    0.1500 C   0  0  0  0  0  0  0  0  0  0  0  0
    2.0583   -2.1532   -0.3758 C   0  0  0  0  0  0  0  0  0  0  0  0
   -1.3380    2.3538   -0.0243 C   0  0  0  0  0  0  0  0  0  0  0  0
    2.3493    1.5644    0.1313 C   0  0  0  0  0  0  0  0  0  0  0  0
    2.8884   -1.0229   -0.1177 C   0  0  0  0  0  0  0  0  0  0  0  0
    1.7295    3.8255    0.4524 C   0  0  2  0  0  0  0  0  0  0  0  0
   -3.6638    1.6290   -0.2389 C   0  0  0  0  0  0  0  0  0  0  0  0
    3.5629    2.3276    0.4148 C   0  0  0  0  0  0  0  0  0  0  0  0
   -1.8183    3.6599    0.2573 C   0  0  0  0  0  0  0  0  0  0  0  0
    2.6003   -3.4547   -0.4348 C   0  0  0  0  0  0  0  0  0  0  0  0
    4.2722   -1.2677    0.0762 C   0  0  0  0  0  0  0  0  0  0  0  0
   -0.7643   -2.5959    2.9051 C   0  0  0  0  0  0  0  0  0  0  0  0
   -4.8276   -2.2527    1.3264 C   0  0  0  0  0  0  0  0  0  0  0  0
   -4.0945    2.9279    0.0448 C   0  0  0  0  0  0  0  0  0  0  0  0
   -3.1828    3.9368    0.2864 C   0  0  0  0  0  0  0  0  0  0  0  0
    3.9677   -3.6422   -0.2382 C   0  0  0  0  0  0  0  0  0  0  0  0
    4.7958   -2.5622    0.0136 C   0  0  0  0  0  0  0  0  0  0  0  0
   -3.4487   -2.8039   -0.7144 H   0  0  0  0  0  0  0  0  0  0  0  0
    0.1243   -3.3313   -1.6567 H   0  0  0  0  0  0  0  0  0  0  0  0
   -2.6707   -3.4944    1.4159 H   0  0  0  0  0  0  0  0  0  0  0  0
   -0.2364   -3.9165    0.7832 H   0  0  0  0  0  0  0  0  0  0  0  0
   -1.4843   -4.2887   -0.3565 H   0  0  0  0  0  0  0  0  0  0  0  0
   -2.6812   -0.0660   -3.0084 H   0  0  0  0  0  0  0  0  0  0  0  0
   -3.3606   -1.6805   -2.9164 H   0  0  0  0  0  0  0  0  0  0  0  0
   -4.1267   -0.3771   -2.0279 H   0  0  0  0  0  0  0  0  0  0  0  0
   -2.3166   -1.3717    2.4235 H   0  0  0  0  0  0  0  0  0  0  0  0
    1.3113    4.2263    1.3795 H   0  0  0  0  0  0  0  0  0  0  0  0
   -4.4241    0.8764   -0.4078 H   0  0  0  0  0  0  0  0  0  0  0  0
   -1.1197    4.4660    0.4661 H   0  0  0  0  0  0  0  0  0  0  0  0
    1.9678   -4.3164   -0.6284 H   0  0  0  0  0  0  0  0  0  0  0  0
    3.7975    4.4006    0.8223 H   0  0  0  0  0  0  0  0  0  0  0  0
    4.9586   -0.4541    0.2810 H   0  0  0  0  0  0  0  0  0  0  0  0
   -0.5850   -1.9653    3.7831 H   0  0  0  0  0  0  0  0  0  0  0  0
    0.2260   -2.8587    2.5231 H   0  0  0  0  0  0  0  0  0  0  0  0
   -1.2810   -3.4947    3.2574 H   0  0  0  0  0  0  0  0  0  0  0  0
   -5.0534   -3.1660    0.7663 H   0  0  0  0  0  0  0  0  0  0  0  0
   -5.7780   -1.7547    1.5427 H   0  0  0  0  0  0  0  0  0  0  0  0
   -4.3692   -2.4859    2.2911 H   0  0  0  0  0  0  0  0  0  0  0  0
   -5.1594    3.1429    0.0766 H   0  0  0  0  0  0  0  0  0  0  0  0
   -3.5269    4.9429    0.5071 H   0  0  0  0  0  0  0  0  0  0  0  0
    4.3841   -4.6448   -0.2830 H   0  0  0  0  0  0  0  0  0  0  0  0
    5.8600   -2.7192    0.1664 H   0  0  0  0  0  0  0  0  0  0  0  0
    1.7613    4.2387   -1.4527 H   0  0  0  0  0  0  0  0  0  0  0  0
  1  9  1  0  0  0  0
  1 11  1  0  0  0  0
  2 10  1  0  0  0  0
  2 32  1  0  0  0  0
  3 25  1  0  0  0  0
  3 62  1  0  0  0  0
  4 27  2  0  0  0  0
  5  9  1  0  0  0  0
  5 14  1  0  0  0  0
  5 18  1  0  0  0  0
  6 11  1  0  0  0  0
  6 15  1  0  0  0  0
  6 21  1  0  0  0  0
  7 12  1  0  0  0  0
  7 31  1  0  0  0  0
  7 45  1  0  0  0  0
  8 25  1  0  0  0  0
  8 27  1  0  0  0  0
  8 50  1  0  0  0  0
  9 10  1  0  0  0  0
  9 19  1  0  0  0  0
 10 12  1  0  0  0  0
 10 37  1  0  0  0  0
 11 13  1  0  0  0  0
 11 38  1  0  0  0  0
 12 13  1  0  0  0  0
 12 39  1  0  0  0  0
 13 40  1  0  0  0  0
 13 41  1  0  0  0  0
 14 15  2  0  0  0  0
 14 16  1  0  0  0  0
 15 17  1  0  0  0  0
 16 20  2  0  0  0  0
 16 22  1  0  0  0  0
 17 23  2  0  0  0  0
 17 24  1  0  0  0  0
 18 22  1  0  0  0  0
 18 26  2  0  0  0  0
 19 42  1  0  0  0  0
 19 43  1  0  0  0  0
 19 44  1  0  0  0  0
 20 23  1  0  0  0  0
 20 25  1  0  0  0  0
 21 24  1  0  0  0  0
 21 29  2  0  0  0  0
 22 28  2  0  0  0  0
 23 27  1  0  0  0  0
 24 30  2  0  0  0  0
 25 46  1  0  0  0  0
 26 33  1  0  0  0  0
 26 47  1  0  0  0  0
 28 34  1  0  0  0  0
 28 48  1  0  0  0  0
 29 35  1  0  0  0  0
 29 49  1  0  0  0  0
 30 36  1  0  0  0  0
 30 51  1  0  0  0  0
 31 52  1  0  0  0  0
 31 53  1  0  0  0  0
 31 54  1  0  0  0  0
 32 55  1  0  0  0  0
 32 56  1  0  0  0  0
 32 57  1  0  0  0  0
 33 34  2  0  0  0  0
 33 58  1  0  0  0  0
 34 59  1  0  0  0  0
 35 36  2  0  0  0  0
 35 60  1  0  0  0  0
 36 61  1  0  0  0  0
M  END
> <PUBCHEM_COMPOUND_CID>
3078519

> <PUBCHEM_CONFORMER_RMSD>
0.8

> <PUBCHEM_CONFORMER_DIVERSEORDER>
1

> <PUBCHEM_MMFF94_PARTIAL_CHARGES>
43
1 -0.56
10 0.28
11 0.54
12 0.27
14 -0.05
15 -0.05
16 -0.01
17 -0.01
18 -0.15
2 -0.56
20 -0.14
21 -0.15
23 0.09
25 0.72
26 -0.15
27 0.54
28 -0.15
29 -0.15
3 -0.68
30 -0.15
31 0.27
32 0.28
33 -0.15
34 -0.15
35 -0.15
36 -0.15
4 -0.57
45 0.36
47 0.15
48 0.15
49 0.15
5 -0.04
50 0.37
51 0.15
58 0.15
59 0.15
6 -0.04
60 0.15
61 0.15
62 0.4
7 -0.9
8 -0.73
9 0.54

> <PUBCHEM_EFFECTIVE_ROTOR_COUNT>
3.2

> <PUBCHEM_PHARMACOPHORE_FEATURES>
18
1 1 acceptor
1 2 acceptor
1 3 acceptor
1 3 donor
1 4 acceptor
1 5 cation
1 6 cation
1 7 cation
1 7 donor
1 8 donor
5 5 14 16 18 22 rings
5 6 15 17 21 24 rings
5 8 20 23 25 27 rings
6 1 9 10 11 12 13 rings
6 14 15 16 17 20 23 rings
6 18 22 26 28 33 34 rings
6 21 24 29 30 35 36 rings
7 1 5 6 9 11 14 15 rings

> <PUBCHEM_HEAVY_ATOM_COUNT>
36

> <PUBCHEM_ATOM_DEF_STEREO_COUNT>
5

> <PUBCHEM_ATOM_UDEF_STEREO_COUNT>
0

> <PUBCHEM_BOND_DEF_STEREO_COUNT>
0

> <PUBCHEM_BOND_UDEF_STEREO_COUNT>
0

> <PUBCHEM_ISOTOPIC_ATOM_COUNT>
0

> <PUBCHEM_COMPONENT_COUNT>
1

> <PUBCHEM_CACTVS_TAUTO_COUNT>
2

> <PUBCHEM_CONFORMER_ID>
002EF97700000001

> <PUBCHEM_MMFF94_ENERGY>
154.607

> <PUBCHEM_FEATURE_SELFOVERLAP>
92.514

> <PUBCHEM_SHAPE_FINGERPRINT>
10006869 2 18343310284155881593
10190108 129 17976291180473581329
10675989 125 18195214876704412229
1100329 8 18195807362609214076
11513181 2 18060129938824406654
11578080 2 14352905441059533180
12107698 1 18411695470127923215
12293681 4 17905617596538958066
12422481 6 18197803062777638603
12553582 1 17908133623015058205
12788726 201 18190171463594991993
13140716 1 18267867185772130884
14020679 6 18189064087728908331
140371 6 18044379554868185053
14725015 67 18335139769942061747
14790565 3 17836934391308408676
15320467 1 18195527214634771662
15420108 30 16979263580193381741
15439362 3 18338792313168285380
16112460 7 18199481986599670825
19319366 153 17608946282637710762
19591789 44 17404579975036504508
19930381 70 18050844721688634551
20739085 24 17758967299632175336
20764821 26 18410017598098098872
23558518 356 18334577953358300461
23559900 14 18340477881582928968
3178227 256 17978806614392284121
350125 39 18411706473601559461
463206 1 18050289167541731268
469060 322 17405142314678088210
5081480 168 16986063144618839862
5171179 24 18413114948128869266
70251023 43 18198601346737426967
9981440 41 18051954099024757224

> <PUBCHEM_SHAPE_MULTIPOLES>
697.46
8.03
6.43
1.38
2.72
4.17
0.41
-1.1
0.3
0.13
1.24
-0.98
-1.46
1.01

> <PUBCHEM_SHAPE_SELFOVERLAP>
1605.767

> <PUBCHEM_SHAPE_VOLUME>
355.7

> <PUBCHEM_COORDINATE_TYPE>
2
5
10

$$$$
