153273973
  -OEChem-03222502043D

 27 29  0     0  0  0  0  0  0999 V2000
    3.9249   -0.5724   -1.1478 S   0  0  0  0  0  0  0  0  0  0  0  0
    1.2993    0.7257    1.3190 O   0  0  0  0  0  0  0  0  0  0  0  0
   -4.0366   -0.4827    0.8814 N   0  0  0  0  0  0  0  0  0  0  0  0
    3.5960    0.8453    0.9629 N   0  0  0  0  0  0  0  0  0  0  0  0
    5.8326    0.7022    0.2472 N   0  0  0  0  0  0  0  0  0  0  0  0
   -0.1459   -0.8244   -0.5746 C   0  0  0  0  0  0  0  0  0  0  0  0
   -2.2641    0.3592   -0.5177 C   0  0  0  0  0  0  0  0  0  0  0  0
   -0.9503    0.2294   -0.9989 C   0  0  0  0  0  0  0  0  0  0  0  0
   -2.7823   -0.5777    0.4009 C   0  0  0  0  0  0  0  0  0  0  0  0
    1.2129   -0.9557   -1.0752 C   0  0  0  0  0  0  0  0  0  0  0  0
   -0.6497   -1.7507    0.3299 C   0  0  0  0  0  0  0  0  0  0  0  0
   -1.9560   -1.6214    0.8081 C   0  0  0  0  0  0  0  0  0  0  0  0
    2.3205   -0.4040   -0.5375 C   0  0  0  0  0  0  0  0  0  0  0  0
   -3.0956    1.4101   -0.9280 C   0  0  0  0  0  0  0  0  0  0  0  0
    2.3037    0.4432    0.6827 C   0  0  0  0  0  0  0  0  0  0  0  0
   -4.3884    1.5105   -0.4346 C   0  0  0  0  0  0  0  0  0  0  0  0
    4.5856    0.4169    0.1221 C   0  0  0  0  0  0  0  0  0  0  0  0
   -4.8066    0.5466    0.4601 C   0  0  0  0  0  0  0  0  0  0  0  0
   -0.5600    0.9580   -1.7081 H   0  0  0  0  0  0  0  0  0  0  0  0
    1.3008   -1.5673   -1.9714 H   0  0  0  0  0  0  0  0  0  0  0  0
   -0.0407   -2.5824    0.6762 H   0  0  0  0  0  0  0  0  0  0  0  0
   -2.3270   -2.3602    1.5162 H   0  0  0  0  0  0  0  0  0  0  0  0
   -2.7401    2.1565   -1.6347 H   0  0  0  0  0  0  0  0  0  0  0  0
    3.8007    1.4351    1.7627 H   0  0  0  0  0  0  0  0  0  0  0  0
   -5.0447    2.3165   -0.7412 H   0  0  0  0  0  0  0  0  0  0  0  0
   -5.8071    0.5738    0.8793 H   0  0  0  0  0  0  0  0  0  0  0  0
    6.3546    0.2549   -0.5143 H   0  0  0  0  0  0  0  0  0  0  0  0
  1 13  1  0  0  0  0
  1 17  1  0  0  0  0
  2 15  2  0  0  0  0
  3  9  1  0  0  0  0
  3 18  2  0  0  0  0
  4 15  1  0  0  0  0
  4 17  1  0  0  0  0
  4 24  1  0  0  0  0
  5 17  2  0  0  0  0
  5 27  1  0  0  0  0
  6  8  2  0  0  0  0
  6 10  1  0  0  0  0
  6 11  1  0  0  0  0
  7  8  1  0  0  0  0
  7  9  2  0  0  0  0
  7 14  1  0  0  0  0
  8 19  1  0  0  0  0
  9 12  1  0  0  0  0
 10 13  2  3  0  0  0
 10 20  1  0  0  0  0
 11 12  2  0  0  0  0
 11 21  1  0  0  0  0
 12 22  1  0  0  0  0
 13 15  1  0  0  0  0
 14 16  2  0  0  0  0
 14 23  1  0  0  0  0
 16 18  1  0  0  0  0
 16 25  1  0  0  0  0
 18 26  1  0  0  0  0
M  END
> <PUBCHEM_COMPOUND_CID>
153273973

> <PUBCHEM_CONFORMER_RMSD>
0.6

> <PUBCHEM_CONFORMER_DIVERSEORDER>
1
2

> <PUBCHEM_MMFF94_PARTIAL_CHARGES>
26
1 -0.24
10 -0.18
11 -0.15
12 -0.15
13 0.12
14 -0.15
15 0.62
16 -0.15
17 0.65
18 0.16
19 0.15
2 -0.57
20 0.15
21 0.15
22 0.15
23 0.15
24 0.37
25 0.15
26 0.15
27 0.4
3 -0.62
4 -0.49
5 -0.85
6 0.03
8 -0.15
9 0.31

> <PUBCHEM_EFFECTIVE_ROTOR_COUNT>
1.4

> <PUBCHEM_PHARMACOPHORE_FEATURES>
7
1 2 acceptor
1 3 acceptor
1 4 donor
1 5 donor
5 1 4 13 15 17 rings
6 3 7 9 14 16 18 rings
6 6 7 8 9 11 12 rings

> <PUBCHEM_HEAVY_ATOM_COUNT>
18

> <PUBCHEM_ATOM_DEF_STEREO_COUNT>
0

> <PUBCHEM_ATOM_UDEF_STEREO_COUNT>
0

> <PUBCHEM_BOND_DEF_STEREO_COUNT>
0

> <PUBCHEM_BOND_UDEF_STEREO_COUNT>
1

> <PUBCHEM_ISOTOPIC_ATOM_COUNT>
0

> <PUBCHEM_COMPONENT_COUNT>
1

> <PUBCHEM_CACTVS_TAUTO_COUNT>
-1

> <PUBCHEM_CONFORMER_ID>
0922C67500000001

> <PUBCHEM_MMFF94_ENERGY>
47.4258

> <PUBCHEM_FEATURE_SELFOVERLAP>
35.593

> <PUBCHEM_SHAPE_FINGERPRINT>
106641 1 17749117729084813241
11132069 177 18113341886434988511
11401426 45 16272207501049990258
11471102 20 17561085791658424086
12011746 2 18334286579051827797
12107183 9 16520160382174331384
12119455 92 17989204841304203223
12236239 1 16370728144770758254
12251169 10 17676206883515594871
12403259 415 18263932046831113245
12500047 106 18409165532374018666
12596602 18 16443353099572486952
13288520 33 10519990369774186696
13675066 3 18334300863691190990
13897977 58 17748547056184023013
14178342 30 17894638084141408131
14252887 29 14634863120454015440
14341114 328 16153716422405360652
14943859 89 18131068238172035054
15219456 202 18341897372236823983
15375358 24 18272932726219990606
15375462 189 15791727512154491692
1813 80 14562813201512745334
18186145 218 17846498123317959463
19050596 39 16443068309081178668
19784866 170 18187364311461182830
19862831 5 14764344946450561918
200 152 15339120143091439507
20645477 56 18408885148244680500
20645477 70 17489596623636511222
21033648 29 18271796921739242889
21267235 1 13623529035391601592
21279426 13 18056486036814620036
212916 134 18334002900276970114
22854114 59 18413392037890956671
231179 274 18273494568050789466
23175994 123 17988652899568265280
23402539 116 18409160030430754719
23500284 214 18411699876800714059
23559900 14 18189067399391799870
25 1 17846497023853862878
2916195 48 18341888615041211016
347723 3 14764631914954207771
3545911 37 17632579374327001830
4072396 5 17703780394001082434
4325135 7 17632574990209826223
449060 50 18410014338170311990
474 4 17489869357826843960
5104073 3 18042693793452897769
53428517 29 18040431092373995508
633830 44 18201999885237834805
67856867 119 12966829274657591962
83771 10 12901545745265660742
90316 7 16660641822107098301

> <PUBCHEM_SHAPE_MULTIPOLES>
353.47
10.54
1.46
1.17
5.13
0.25
0.04
-4.07
-1.2
-1.04
-0.04
0.4
-0.03
1.16

> <PUBCHEM_SHAPE_SELFOVERLAP>
773.786

> <PUBCHEM_SHAPE_VOLUME>
192.5

> <PUBCHEM_COORDINATE_TYPE>
2
5
10

$$$$
