123015
  -OEChem-03202504033D

 32 34  0     0  0  0  0  0  0999 V2000
   -0.5816    1.9723   -0.4955 O   0  0  0  0  0  0  0  0  0  0  0  0
   -2.5056   -0.2072    1.1342 N   0  0  0  0  0  0  0  0  0  0  0  0
    1.7713    1.8189   -0.3500 N   0  0  0  0  0  0  0  0  0  0  0  0
    0.5833   -0.1026    0.0174 C   0  0  0  0  0  0  0  0  0  0  0  0
   -1.8646   -0.6006    0.0105 C   0  0  0  0  0  0  0  0  0  0  0  0
    2.0022   -0.4131    0.1534 C   0  0  0  0  0  0  0  0  0  0  0  0
   -2.7120   -0.6092   -1.0401 C   0  0  0  0  0  0  0  0  0  0  0  0
    2.6783    0.7882   -0.0796 C   0  0  0  0  0  0  0  0  0  0  0  0
   -0.4630   -0.9205    0.1477 C   0  0  0  0  0  0  0  0  0  0  0  0
   -3.8122    0.0502    0.8106 C   0  0  0  0  0  0  0  0  0  0  0  0
    0.4519    1.3565   -0.3107 C   0  0  0  0  0  0  0  0  0  0  0  0
   -3.9689   -0.1920   -0.5362 C   0  0  0  0  0  0  0  0  0  0  0  0
    2.6998   -1.5709    0.4411 C   0  0  0  0  0  0  0  0  0  0  0  0
    4.0555    0.8822   -0.0354 C   0  0  0  0  0  0  0  0  0  0  0  0
   -2.4181   -0.9736   -2.4406 C   0  0  0  0  0  0  0  0  0  0  0  0
   -4.7795    0.5028    1.8276 C   0  0  0  0  0  0  0  0  0  0  0  0
    4.0960   -1.4982    0.4908 C   0  0  0  0  0  0  0  0  0  0  0  0
    4.7672   -0.2835    0.2548 C   0  0  0  0  0  0  0  0  0  0  0  0
   -0.2687   -1.9657    0.3835 H   0  0  0  0  0  0  0  0  0  0  0  0
   -2.1034   -0.1143    2.0582 H   0  0  0  0  0  0  0  0  0  0  0  0
   -4.8894   -0.0793   -1.0930 H   0  0  0  0  0  0  0  0  0  0  0  0
    2.0503    2.7727   -0.5472 H   0  0  0  0  0  0  0  0  0  0  0  0
    2.1940   -2.5124    0.6245 H   0  0  0  0  0  0  0  0  0  0  0  0
    4.5710    1.8181   -0.2174 H   0  0  0  0  0  0  0  0  0  0  0  0
   -3.3162   -0.9210   -3.0648 H   0  0  0  0  0  0  0  0  0  0  0  0
   -1.6730   -0.2940   -2.8672 H   0  0  0  0  0  0  0  0  0  0  0  0
   -2.0279   -1.9948   -2.5011 H   0  0  0  0  0  0  0  0  0  0  0  0
   -4.8781   -0.2400    2.6259 H   0  0  0  0  0  0  0  0  0  0  0  0
   -4.4572    1.4488    2.2745 H   0  0  0  0  0  0  0  0  0  0  0  0
   -5.7704    0.6585    1.3888 H   0  0  0  0  0  0  0  0  0  0  0  0
    4.6728   -2.3919    0.7147 H   0  0  0  0  0  0  0  0  0  0  0  0
    5.8528   -0.2550    0.2997 H   0  0  0  0  0  0  0  0  0  0  0  0
  1 11  2  0  0  0  0
  2  5  1  0  0  0  0
  2 10  1  0  0  0  0
  2 20  1  0  0  0  0
  3  8  1  0  0  0  0
  3 11  1  0  0  0  0
  3 22  1  0  0  0  0
  4  6  1  0  0  0  0
  4  9  2  3  0  0  0
  4 11  1  0  0  0  0
  5  7  2  0  0  0  0
  5  9  1  0  0  0  0
  6  8  1  0  0  0  0
  6 13  2  0  0  0  0
  7 12  1  0  0  0  0
  7 15  1  0  0  0  0
  8 14  2  0  0  0  0
  9 19  1  0  0  0  0
 10 12  2  0  0  0  0
 10 16  1  0  0  0  0
 12 21  1  0  0  0  0
 13 17  1  0  0  0  0
 13 23  1  0  0  0  0
 14 18  1  0  0  0  0
 14 24  1  0  0  0  0
 15 25  1  0  0  0  0
 15 26  1  0  0  0  0
 15 27  1  0  0  0  0
 16 28  1  0  0  0  0
 16 29  1  0  0  0  0
 16 30  1  0  0  0  0
 17 18  2  0  0  0  0
 17 31  1  0  0  0  0
 18 32  1  0  0  0  0
M  END
> <PUBCHEM_COMPOUND_CID>
123015

> <PUBCHEM_CONFORMER_RMSD>
0.6

> <PUBCHEM_CONFORMER_DIVERSEORDER>
1
4
2
3

> <PUBCHEM_MMFF94_PARTIAL_CHARGES>
26
1 -0.57
10 -0.33
11 0.62
12 -0.15
13 -0.15
14 -0.15
15 0.18
16 0.18
17 -0.15
18 -0.15
19 0.15
2 0.03
20 0.27
21 0.15
22 0.37
23 0.15
24 0.15
3 -0.55
31 0.15
32 0.15
4 -0.01
5 -0.2
6 0.03
7 -0.18
8 0.12
9 -0.11

> <PUBCHEM_EFFECTIVE_ROTOR_COUNT>
1.2

> <PUBCHEM_PHARMACOPHORE_FEATURES>
7
1 1 acceptor
1 2 cation
1 2 donor
1 3 donor
5 2 5 7 10 12 rings
5 3 4 6 8 11 rings
6 6 8 13 14 17 18 rings

> <PUBCHEM_HEAVY_ATOM_COUNT>
18

> <PUBCHEM_ATOM_DEF_STEREO_COUNT>
0

> <PUBCHEM_ATOM_UDEF_STEREO_COUNT>
0

> <PUBCHEM_BOND_DEF_STEREO_COUNT>
0

> <PUBCHEM_BOND_UDEF_STEREO_COUNT>
1

> <PUBCHEM_ISOTOPIC_ATOM_COUNT>
0

> <PUBCHEM_COMPONENT_COUNT>
1

> <PUBCHEM_CACTVS_TAUTO_COUNT>
2

> <PUBCHEM_CONFORMER_ID>
0001E08700000001

> <PUBCHEM_MMFF94_ENERGY>
51.7348

> <PUBCHEM_FEATURE_SELFOVERLAP>
35.609

> <PUBCHEM_SHAPE_FINGERPRINT>
10062212 137 18059851800826397919
11471102 20 18261387871387333070
11578080 2 17700377443371769521
11796584 16 15985116197680932270
12186901 62 15502647179249813807
12236239 1 18131349726529500175
12500047 106 16200432468198852151
12553582 1 18408880729198190406
12670546 56 17917986187433499473
13140716 1 18190460657086628858
13296908 3 17676481752690296218
13675066 3 18259704505852367409
13760787 5 18407758153500953156
14004511 7 18202003235280592563
14386348 63 17530965786827079635
15375462 189 18413106160720480304
15653759 3 16660360398416591893
16945 1 18334569192120992804
17844478 74 17312820489733020773
1813 80 18337122176289437836
18186145 218 17095235913108801778
18785283 64 17242750919950434900
19489759 90 15770053917604634379
200 152 18340476812119871212
20645477 70 18188197733028558870
21065201 7 16056881342409793158
21267235 1 18262245430628435490
212916 134 16415200027487311467
22094290 60 14996281418424532671
2297311 6 15502382196863168931
23175994 123 17894349969160516893
23184049 59 18410579487036368267
23402539 116 18411408506346064510
23493267 7 16298932182966012157
23557571 272 15123515839134164339
23559900 14 16081635674605214418
26918003 58 17821726130860543362
2838139 119 18267297643936090469
34797466 226 15481832449321057640
474 4 18054218010636063856
5104073 3 18338796827119865690
573450 72 17489863847531808063
6049 1 16877938364896309933
633830 44 18269566103426172660
7495541 125 16226055521764299756
77492 1 18059854004091658839
9862522 239 17986394391348323785
9981440 41 17119990579758311561

> <PUBCHEM_SHAPE_MULTIPOLES>
354.6
9.44
1.55
1.36
0.43
0.26
-0.3
-0.52
2.69
0.7
-0.3
-1.82
-0.25
-1.49

> <PUBCHEM_SHAPE_SELFOVERLAP>
787.7

> <PUBCHEM_SHAPE_VOLUME>
192.9

> <PUBCHEM_COORDINATE_TYPE>
2
5
10

$$$$
