90661076
  -OEChem-03202503443D

 48 52  0     0  0  0  0  0  0999 V2000
    2.2995    2.4460    0.0386 O   0  0  0  0  0  0  0  0  0  0  0  0
   -2.4103    0.8618    1.5442 O   0  0  0  0  0  0  0  0  0  0  0  0
    3.1417    0.3422    0.0758 N   0  0  0  0  0  0  0  0  0  0  0  0
   -3.8042    0.4381   -0.3109 N   0  0  0  0  0  0  0  0  0  0  0  0
    4.2046   -1.6216    0.1595 N   0  0  0  0  0  0  0  0  0  0  0  0
   -3.5507    0.4597   -1.6590 N   0  0  0  0  0  0  0  0  0  0  0  0
    1.6367   -4.2098   -0.4271 N   0  0  0  0  0  0  0  0  0  0  0  0
    0.7678    0.6060   -0.3295 C   0  0  0  0  0  0  0  0  0  0  0  0
    3.0347   -1.0378   -0.0158 C   0  0  0  0  0  0  0  0  0  0  0  0
    4.4772    0.6286    0.3264 C   0  0  0  0  0  0  0  0  0  0  0  0
    0.6651   -0.8556   -0.4238 C   0  0  0  0  0  0  0  0  0  0  0  0
    2.0878    1.2484   -0.0622 C   0  0  0  0  0  0  0  0  0  0  0  0
   -1.6011    1.0529   -0.7250 C   0  0  0  0  0  0  0  0  0  0  0  0
    1.7639   -1.6294   -0.2705 C   0  0  0  0  0  0  0  0  0  0  0  0
   -0.2566    1.4654   -0.4658 C   0  0  0  0  0  0  0  0  0  0  0  0
    5.1043   -0.6136    0.3708 C   0  0  0  0  0  0  0  0  0  0  0  0
   -2.2540    0.8506   -1.8810 C   0  0  0  0  0  0  0  0  0  0  0  0
   -2.6219    0.7859    0.3447 C   0  0  0  0  0  0  0  0  0  0  0  0
    5.1890    1.8219    0.5157 C   0  0  0  0  0  0  0  0  0  0  0  0
   -0.7096   -1.4302   -0.6960 C   0  0  0  0  0  0  0  0  0  0  0  0
   -5.0087    0.1288    0.2880 C   0  0  0  0  0  0  0  0  0  0  0  0
    6.4876   -0.6920    0.6099 C   0  0  0  0  0  0  0  0  0  0  0  0
   -1.7612    1.0198   -3.2755 C   0  0  0  0  0  0  0  0  0  0  0  0
    6.5648    1.7279    0.7532 C   0  0  0  0  0  0  0  0  0  0  0  0
    7.2060    0.4919    0.7997 C   0  0  0  0  0  0  0  0  0  0  0  0
    1.6937   -3.0533   -0.3570 C   0  0  0  0  0  0  0  0  0  0  0  0
   -5.1213    0.1474    1.6783 C   0  0  0  0  0  0  0  0  0  0  0  0
   -6.1132   -0.2025   -0.4967 C   0  0  0  0  0  0  0  0  0  0  0  0
   -6.3384   -0.1655    2.2837 C   0  0  0  0  0  0  0  0  0  0  0  0
   -7.3303   -0.5153    0.1086 C   0  0  0  0  0  0  0  0  0  0  0  0
   -7.4429   -0.4968    1.4988 C   0  0  0  0  0  0  0  0  0  0  0  0
   -0.1257    2.5387   -0.3555 H   0  0  0  0  0  0  0  0  0  0  0  0
   -4.2736    0.6254   -2.3460 H   0  0  0  0  0  0  0  0  0  0  0  0
    4.7095    2.7933    0.4832 H   0  0  0  0  0  0  0  0  0  0  0  0
   -0.6712   -2.5274   -0.7094 H   0  0  0  0  0  0  0  0  0  0  0  0
   -1.0589   -1.2197   -1.7046 H   0  0  0  0  0  0  0  0  0  0  0  0
   -1.4132   -1.2595    0.1157 H   0  0  0  0  0  0  0  0  0  0  0  0
    6.9928   -1.6521    0.6477 H   0  0  0  0  0  0  0  0  0  0  0  0
   -1.8453    0.0783   -3.8278 H   0  0  0  0  0  0  0  0  0  0  0  0
   -0.7127    1.3319   -3.3051 H   0  0  0  0  0  0  0  0  0  0  0  0
   -2.3511    1.7794   -3.7988 H   0  0  0  0  0  0  0  0  0  0  0  0
    7.1425    2.6366    0.9036 H   0  0  0  0  0  0  0  0  0  0  0  0
    8.2757    0.4464    0.9855 H   0  0  0  0  0  0  0  0  0  0  0  0
   -4.3230    0.3932    2.3627 H   0  0  0  0  0  0  0  0  0  0  0  0
   -6.0645   -0.2328   -1.5811 H   0  0  0  0  0  0  0  0  0  0  0  0
   -6.4280   -0.1513    3.3662 H   0  0  0  0  0  0  0  0  0  0  0  0
   -8.1904   -0.7744   -0.5020 H   0  0  0  0  0  0  0  0  0  0  0  0
   -8.3905   -0.7406    1.9701 H   0  0  0  0  0  0  0  0  0  0  0  0
  1 12  2  0  0  0  0
  2 18  2  0  0  0  0
  3  9  1  0  0  0  0
  3 10  1  0  0  0  0
  3 12  1  0  0  0  0
  4  6  1  0  0  0  0
  4 18  1  0  0  0  0
  4 21  1  0  0  0  0
  5  9  2  0  0  0  0
  5 16  1  0  0  0  0
  6 17  1  0  0  0  0
  6 33  1  0  0  0  0
  7 26  3  0  0  0  0
  8 11  1  0  0  0  0
  8 12  1  0  0  0  0
  8 15  2  0  0  0  0
  9 14  1  0  0  0  0
 10 16  1  0  0  0  0
 10 19  2  0  0  0  0
 11 14  2  0  0  0  0
 11 20  1  0  0  0  0
 13 15  1  0  0  0  0
 13 17  2  0  0  0  0
 13 18  1  0  0  0  0
 14 26  1  0  0  0  0
 15 32  1  0  0  0  0
 16 22  2  0  0  0  0
 17 23  1  0  0  0  0
 19 24  1  0  0  0  0
 19 34  1  0  0  0  0
 20 35  1  0  0  0  0
 20 36  1  0  0  0  0
 20 37  1  0  0  0  0
 21 27  2  0  0  0  0
 21 28  1  0  0  0  0
 22 25  1  0  0  0  0
 22 38  1  0  0  0  0
 23 39  1  0  0  0  0
 23 40  1  0  0  0  0
 23 41  1  0  0  0  0
 24 25  2  0  0  0  0
 24 42  1  0  0  0  0
 25 43  1  0  0  0  0
 27 29  1  0  0  0  0
 27 44  1  0  0  0  0
 28 30  2  0  0  0  0
 28 45  1  0  0  0  0
 29 31  2  0  0  0  0
 29 46  1  0  0  0  0
 30 31  1  0  0  0  0
 30 47  1  0  0  0  0
 31 48  1  0  0  0  0
M  END
> <PUBCHEM_COMPOUND_CID>
90661076

> <PUBCHEM_CONFORMER_RMSD>
0.6

> <PUBCHEM_CONFORMER_DIVERSEORDER>
2
1
3
4

> <PUBCHEM_MMFF94_PARTIAL_CHARGES>
42
1 -0.57
10 -0.15
11 -0.14
12 0.56
13 0.01
14 0.11
15 -0.15
16 0.23
17 -0.04
18 0.62
19 -0.15
2 -0.57
20 0.14
21 0.12
22 -0.15
23 0.14
24 -0.15
25 -0.15
26 0.49
27 -0.15
28 -0.15
29 -0.15
3 0.29
30 -0.15
31 -0.15
32 0.15
33 0.4
34 0.15
38 0.15
4 -0.16
42 0.15
43 0.15
44 0.15
45 0.15
46 0.15
47 0.15
48 0.15
5 -0.57
6 -0.52
7 -0.56
8 0.01
9 0.14

> <PUBCHEM_EFFECTIVE_ROTOR_COUNT>
2

> <PUBCHEM_PHARMACOPHORE_FEATURES>
9
1 1 acceptor
1 2 acceptor
1 6 donor
1 7 acceptor
5 3 5 9 10 16 rings
5 4 6 13 17 18 rings
6 10 16 19 22 24 25 rings
6 21 27 28 29 30 31 rings
6 3 8 9 11 12 14 rings

> <PUBCHEM_HEAVY_ATOM_COUNT>
31

> <PUBCHEM_ATOM_DEF_STEREO_COUNT>
0

> <PUBCHEM_ATOM_UDEF_STEREO_COUNT>
0

> <PUBCHEM_BOND_DEF_STEREO_COUNT>
1

> <PUBCHEM_BOND_UDEF_STEREO_COUNT>
0

> <PUBCHEM_ISOTOPIC_ATOM_COUNT>
0

> <PUBCHEM_COMPONENT_COUNT>
1

> <PUBCHEM_CACTVS_TAUTO_COUNT>
31

> <PUBCHEM_CONFORMER_ID>
056760D400000002

> <PUBCHEM_MMFF94_ENERGY>
114.291

> <PUBCHEM_FEATURE_SELFOVERLAP>
45.887

> <PUBCHEM_SHAPE_FINGERPRINT>
10 15 17967810587660032664
10670039 82 13254528530784738147
10835480 77 18336820880603515493
11421498 54 17703793557463766306
11456790 92 18131058313441462576
11719270 70 18409729564706508970
12035758 1 18334847351557147912
12107698 1 16370723738213759356
12236239 1 17489588961013784897
12596602 18 17632584825284124467
13402501 40 18113340808097763859
13540713 4 18044933472320396863
13782708 43 17749669563188501994
13914758 101 12252175256338788687
14028597 1 17703795786330298826
14294032 229 15769772421739286401
14341114 328 17775569732639106447
14849402 71 17988077923664848000
14856354 85 16702016517943784789
15183329 4 8358262527504397233
15188451 53 15285355128537106554
15419008 47 17676481761302187972
15510800 12 17604447283769621467
16994733 274 15554147269356525546
18335252 114 8790606966698719779
19303781 99 16880205670508156035
19315958 150 18340775854209596571
19319366 153 18059852852887975430
19377110 9 18060420183960713891
21033648 29 18116407342123567092
21223535 225 8718563722321100983
21267235 1 18411700946912144100
21521721 280 18271524286385118832
21623969 137 18408041801288133610
21781051 124 18115039554222333234
22149856 69 18264506022055507617
22224240 67 18342457066652442858
22956985 138 17608080980515566794
23559900 14 15575007229343353893
23576562 1 9294701208808194874
2747138 104 18261120663843762409
3004659 81 13840267022211271681
3009799 131 9583518715885126230
3178227 256 18410013256102550920
335352 9 18413387645342075974
3383291 50 16950573211840886243
350125 39 18339075012140791486
4073 2 18114741517677487229
4093350 32 16845298211654871414
4340502 62 18342181072011829702
465052 167 17676491656948184328
5104073 3 18190177884444414385
5758199 1 18131070458881019946
59755656 520 17989201577055224918
6009941 240 18113897105880586173
6523845 18 18335711525068751742

> <PUBCHEM_SHAPE_MULTIPOLES>
601.32
19.02
2.39
1.72
7.62
2.33
-0.74
-1.23
10.61
-3.27
-0.52
3.05
-0.54
1.26

> <PUBCHEM_SHAPE_SELFOVERLAP>
1361.029

> <PUBCHEM_SHAPE_VOLUME>
314.4

> <PUBCHEM_COORDINATE_TYPE>
2
5
10

$$$$
