10836746
  -OEChem-03222501173D

 51 54  0     1  0  0  0  0  0999 V2000
   -2.1277   -0.4574    2.2950 Cl  0  0  0  0  0  0  0  0  0  0  0  0
   -2.8099   -4.8295   -0.7693 Cl  0  0  0  0  0  0  0  0  0  0  0  0
   -0.4379    1.3305   -0.7405 O   0  0  0  0  0  0  0  0  0  0  0  0
   -5.2427    1.3007    0.3230 N   0  0  0  0  0  0  0  0  0  0  0  0
   -5.9420    0.2054    0.0360 N   0  0  0  0  0  0  0  0  0  0  0  0
   -6.6117    1.1767    1.9957 N   0  0  0  0  0  0  0  0  0  0  0  0
   -2.7991    1.1526   -0.2463 C   0  0  2  0  0  0  0  0  0  0  0  0
   -4.1829    1.7502   -0.5780 C   0  0  0  0  0  0  0  0  0  0  0  0
   -1.7227    1.7822   -1.1456 C   0  0  0  0  0  0  0  0  0  0  0  0
   -2.7936   -0.3673   -0.3466 C   0  0  0  0  0  0  0  0  0  0  0  0
   -2.5006   -1.1441    0.7559 C   0  0  0  0  0  0  0  0  0  0  0  0
   -3.0919   -0.9221   -1.5762 C   0  0  0  0  0  0  0  0  0  0  0  0
    0.5947    1.9464   -1.5006 C   0  0  0  0  0  0  0  0  0  0  0  0
    1.9191    1.4404   -1.0381 C   0  0  0  0  0  0  0  0  0  0  0  0
   -2.5054   -2.5329    0.6249 C   0  0  0  0  0  0  0  0  0  0  0  0
   -3.0968   -2.3108   -1.7071 C   0  0  0  0  0  0  0  0  0  0  0  0
   -5.6316    1.8788    1.4761 C   0  0  0  0  0  0  0  0  0  0  0  0
   -2.8035   -3.1162   -0.6066 C   0  0  0  0  0  0  0  0  0  0  0  0
    2.4787    0.3078   -1.6296 C   0  0  0  0  0  0  0  0  0  0  0  0
    2.5985    2.1000   -0.0138 C   0  0  0  0  0  0  0  0  0  0  0  0
    4.3965    0.4939   -0.1723 C   0  0  0  0  0  0  0  0  0  0  0  0
    3.7173   -0.1655   -1.1966 C   0  0  0  0  0  0  0  0  0  0  0  0
    3.8371    1.6267    0.4191 C   0  0  0  0  0  0  0  0  0  0  0  0
   -6.7657    0.1704    1.0856 C   0  0  0  0  0  0  0  0  0  0  0  0
    5.6817    0.0037    0.2766 C   0  0  0  0  0  0  0  0  0  0  0  0
    5.7493   -0.9323    1.3087 C   0  0  0  0  0  0  0  0  0  0  0  0
    6.8532    0.4664   -0.3229 C   0  0  0  0  0  0  0  0  0  0  0  0
    6.9881   -1.4052    1.7415 C   0  0  0  0  0  0  0  0  0  0  0  0
    8.0920   -0.0066    0.1099 C   0  0  0  0  0  0  0  0  0  0  0  0
    8.1593   -0.9426    1.1420 C   0  0  0  0  0  0  0  0  0  0  0  0
   -2.5600    1.4767    0.7706 H   0  0  0  0  0  0  0  0  0  0  0  0
   -4.1522    2.8439   -0.4932 H   0  0  0  0  0  0  0  0  0  0  0  0
   -4.5095    1.5209   -1.5992 H   0  0  0  0  0  0  0  0  0  0  0  0
   -1.8825    1.5351   -2.2018 H   0  0  0  0  0  0  0  0  0  0  0  0
   -1.7638    2.8743   -1.0466 H   0  0  0  0  0  0  0  0  0  0  0  0
   -3.3223   -0.3163   -2.4468 H   0  0  0  0  0  0  0  0  0  0  0  0
    0.4560    1.7251   -2.5663 H   0  0  0  0  0  0  0  0  0  0  0  0
    0.5455    3.0365   -1.3846 H   0  0  0  0  0  0  0  0  0  0  0  0
   -2.2770   -3.1626    1.4822 H   0  0  0  0  0  0  0  0  0  0  0  0
   -3.3308   -2.7515   -2.6728 H   0  0  0  0  0  0  0  0  0  0  0  0
   -5.1919    2.7753    1.8900 H   0  0  0  0  0  0  0  0  0  0  0  0
    1.9581   -0.2161   -2.4268 H   0  0  0  0  0  0  0  0  0  0  0  0
    2.1720    2.9821    0.4565 H   0  0  0  0  0  0  0  0  0  0  0  0
    4.1389   -1.0502   -1.6681 H   0  0  0  0  0  0  0  0  0  0  0  0
    4.3531    2.1524    1.2192 H   0  0  0  0  0  0  0  0  0  0  0  0
   -7.5003   -0.6139    1.1912 H   0  0  0  0  0  0  0  0  0  0  0  0
    4.8460   -1.3036    1.7869 H   0  0  0  0  0  0  0  0  0  0  0  0
    6.8186    1.1958   -1.1289 H   0  0  0  0  0  0  0  0  0  0  0  0
    7.0407   -2.1339    2.5451 H   0  0  0  0  0  0  0  0  0  0  0  0
    9.0042    0.3535   -0.3568 H   0  0  0  0  0  0  0  0  0  0  0  0
    9.1239   -1.3108    1.4790 H   0  0  0  0  0  0  0  0  0  0  0  0
  1 11  1  0  0  0  0
  2 18  1  0  0  0  0
  3  9  1  0  0  0  0
  3 13  1  0  0  0  0
  4  5  1  0  0  0  0
  4  8  1  0  0  0  0
  4 17  1  0  0  0  0
  5 24  2  0  0  0  0
  6 17  2  0  0  0  0
  6 24  1  0  0  0  0
  7  8  1  0  0  0  0
  7  9  1  0  0  0  0
  7 10  1  0  0  0  0
  7 31  1  0  0  0  0
  8 32  1  0  0  0  0
  8 33  1  0  0  0  0
  9 34  1  0  0  0  0
  9 35  1  0  0  0  0
 10 11  2  0  0  0  0
 10 12  1  0  0  0  0
 11 15  1  0  0  0  0
 12 16  2  0  0  0  0
 12 36  1  0  0  0  0
 13 14  1  0  0  0  0
 13 37  1  0  0  0  0
 13 38  1  0  0  0  0
 14 19  2  0  0  0  0
 14 20  1  0  0  0  0
 15 18  2  0  0  0  0
 15 39  1  0  0  0  0
 16 18  1  0  0  0  0
 16 40  1  0  0  0  0
 17 41  1  0  0  0  0
 19 22  1  0  0  0  0
 19 42  1  0  0  0  0
 20 23  2  0  0  0  0
 20 43  1  0  0  0  0
 21 22  2  0  0  0  0
 21 23  1  0  0  0  0
 21 25  1  0  0  0  0
 22 44  1  0  0  0  0
 23 45  1  0  0  0  0
 24 46  1  0  0  0  0
 25 26  2  0  0  0  0
 25 27  1  0  0  0  0
 26 28  1  0  0  0  0
 26 47  1  0  0  0  0
 27 29  2  0  0  0  0
 27 48  1  0  0  0  0
 28 30  2  0  0  0  0
 28 49  1  0  0  0  0
 29 30  1  0  0  0  0
 29 50  1  0  0  0  0
 30 51  1  0  0  0  0
M  END
> <PUBCHEM_COMPOUND_CID>
10836746

> <PUBCHEM_CONFORMER_RMSD>
1

> <PUBCHEM_CONFORMER_DIVERSEORDER>
1
27
52
60
62
7
17
64
31
25
58
39
15
53
45
40
19
35
49
61
4
30
22
44
38
65
13
51
28
43
33
24
6
55
42
47
9
32
12
34
26
21
50
20
37
11
59
56
48
41
63
2
16
10
5
46
14
23
29
3
57
8
54
36
18

> <PUBCHEM_MMFF94_PARTIAL_CHARGES>
42
1 -0.18
10 -0.14
11 0.18
12 -0.15
13 0.42
14 -0.14
15 -0.15
16 -0.15
17 0.04
18 0.18
19 -0.15
2 -0.18
20 -0.15
22 -0.15
23 -0.15
24 0.37
26 -0.15
27 -0.15
28 -0.15
29 -0.15
3 -0.56
30 -0.15
36 0.15
39 0.15
4 0.31
40 0.15
41 0.15
42 0.15
43 0.15
44 0.15
45 0.15
46 0.15
47 0.15
48 0.15
49 0.15
5 -0.71
50 0.15
51 0.15
6 -0.57
7 0.14
8 0.26
9 0.28

> <PUBCHEM_EFFECTIVE_ROTOR_COUNT>
8

> <PUBCHEM_PHARMACOPHORE_FEATURES>
7
1 3 acceptor
3 4 6 17 cation
3 5 6 24 cation
5 4 5 6 17 24 rings
6 10 11 12 15 16 18 rings
6 14 19 20 21 22 23 rings
6 25 26 27 28 29 30 rings

> <PUBCHEM_HEAVY_ATOM_COUNT>
30

> <PUBCHEM_ATOM_DEF_STEREO_COUNT>
0

> <PUBCHEM_ATOM_UDEF_STEREO_COUNT>
1

> <PUBCHEM_BOND_DEF_STEREO_COUNT>
0

> <PUBCHEM_BOND_UDEF_STEREO_COUNT>
0

> <PUBCHEM_ISOTOPIC_ATOM_COUNT>
0

> <PUBCHEM_COMPONENT_COUNT>
1

> <PUBCHEM_CACTVS_TAUTO_COUNT>
1

> <PUBCHEM_CONFORMER_ID>
00A55B0A00000001

> <PUBCHEM_MMFF94_ENERGY>
79.6395

> <PUBCHEM_FEATURE_SELFOVERLAP>
38.294

> <PUBCHEM_SHAPE_FINGERPRINT>
10305334 12 18408324406290558539
11135609 12 17095250224245897736
11377469 6 17022901212235049580
11387372 6 17386013892389279643
11505856 67 8790071534638394831
11524674 6 17988918968412889774
12107183 9 18410576192991708984
13668630 136 15719114643422934408
13941219 33 18186239519877416106
14118638 360 8790893982083229492
14705955 166 17417813868450382609
14866123 147 18337954601630077039
15183329 4 16226036800503016850
15297060 5 18130783452029500906
15320294 125 18260829280372413934
15348495 7 18131059485661929120
15537594 2 17748540442314007112
15684393 108 16588317042908147322
16110190 28 18335420171176383070
16994733 274 15410350836768357195
17809404 112 16630536141075815501
19246450 95 18265899060454972681
21033648 29 17203315733398708198
21049683 271 11023814056470602209
21403212 168 18337113376656055557
22122407 14 15985105244944810008
221357 26 10881403153449607012
23516275 100 8212985117179995742
23522609 53 18190767347690702012
312425 54 18342730854196895504
3383291 50 18341900692921971743
4093350 32 16701743735896634934
444769 64 18260824891458857029
46194498 28 13623537874455558190
484985 159 18335690693881604999
5104073 3 18271802492754911160
54039377 194 17095247986699655784
559249 180 18259698991415059469
563151 248 18335706052805623619
563151 74 16630532803828256348
6058803 2 17975989970470500469
6431902 208 17967529108494077194
6523845 18 15357695314317394544
6691757 9 18272650147716389951
9896288 288 18192149292020063017
9953998 17 18343857828030126072
999808 66 17095531673173600353

> <PUBCHEM_SHAPE_MULTIPOLES>
600.31
21.35
3.39
1.83
29.43
4.27
-0.42
0.47
-10.38
-5.06
0.97
-0.96
0.14
-2.99

> <PUBCHEM_SHAPE_SELFOVERLAP>
1286.492

> <PUBCHEM_SHAPE_VOLUME>
335.2

> <PUBCHEM_COORDINATE_TYPE>
2
5
10

$$$$
