6017349
  -OEChem-03202504163D

 48 52  0     0  0  0  0  0  0999 V2000
   -8.5880   -0.8340   -0.7824 Br  0  0  0  0  0  0  0  0  0  0  0  0
    2.6135    2.4382   -0.0406 O   0  0  0  0  0  0  0  0  0  0  0  0
   -2.1003    0.9732    1.5710 O   0  0  0  0  0  0  0  0  0  0  0  0
    3.4266    0.3246    0.0502 N   0  0  0  0  0  0  0  0  0  0  0  0
   -3.5230    0.5121   -0.2529 N   0  0  0  0  0  0  0  0  0  0  0  0
   -3.2855    0.4866   -1.6040 N   0  0  0  0  0  0  0  0  0  0  0  0
    4.4630   -1.6508    0.1792 N   0  0  0  0  0  0  0  0  0  0  0  0
    1.8509   -4.2186   -0.2887 N   0  0  0  0  0  0  0  0  0  0  0  0
    1.0512    0.6100   -0.3311 C   0  0  0  0  0  0  0  0  0  0  0  0
    3.2989   -1.0558    0.0028 C   0  0  0  0  0  0  0  0  0  0  0  0
    0.9266   -0.8521   -0.3777 C   0  0  0  0  0  0  0  0  0  0  0  0
    4.7692    0.5993    0.2734 C   0  0  0  0  0  0  0  0  0  0  0  0
    2.3836    1.2412   -0.1011 C   0  0  0  0  0  0  0  0  0  0  0  0
   -1.3158    1.0787   -0.7126 C   0  0  0  0  0  0  0  0  0  0  0  0
    2.0164   -1.6365   -0.2152 C   0  0  0  0  0  0  0  0  0  0  0  0
    0.0375    1.4796   -0.4825 C   0  0  0  0  0  0  0  0  0  0  0  0
    5.3797   -0.6498    0.3469 C   0  0  0  0  0  0  0  0  0  0  0  0
   -1.9859    0.8496   -1.8537 C   0  0  0  0  0  0  0  0  0  0  0  0
   -2.3274    0.8622    0.3770 C   0  0  0  0  0  0  0  0  0  0  0  0
   -0.4599   -1.4151   -0.6123 C   0  0  0  0  0  0  0  0  0  0  0  0
    5.5005    1.7874    0.4164 C   0  0  0  0  0  0  0  0  0  0  0  0
   -4.7245    0.2409    0.3698 C   0  0  0  0  0  0  0  0  0  0  0  0
    6.7649   -0.7411    0.5687 C   0  0  0  0  0  0  0  0  0  0  0  0
   -1.5077    0.9663   -3.2587 C   0  0  0  0  0  0  0  0  0  0  0  0
    6.8782    1.6807    0.6370 C   0  0  0  0  0  0  0  0  0  0  0  0
    7.5026    0.4375    0.7122 C   0  0  0  0  0  0  0  0  0  0  0  0
    1.9251   -3.0613   -0.2559 C   0  0  0  0  0  0  0  0  0  0  0  0
   -5.8571   -0.1009   -0.3834 C   0  0  0  0  0  0  0  0  0  0  0  0
   -4.8318    0.3031    1.7667 C   0  0  0  0  0  0  0  0  0  0  0  0
   -7.0710   -0.3748    0.2470 C   0  0  0  0  0  0  0  0  0  0  0  0
   -6.0455    0.0293    2.3971 C   0  0  0  0  0  0  0  0  0  0  0  0
   -7.1650   -0.3099    1.6373 C   0  0  0  0  0  0  0  0  0  0  0  0
    0.1851    2.5538   -0.4082 H   0  0  0  0  0  0  0  0  0  0  0  0
   -4.0145    0.6399   -2.2873 H   0  0  0  0  0  0  0  0  0  0  0  0
   -0.8203   -1.2327   -1.6225 H   0  0  0  0  0  0  0  0  0  0  0  0
   -1.1497   -1.2069    0.2026 H   0  0  0  0  0  0  0  0  0  0  0  0
   -0.4375   -2.5125   -0.5896 H   0  0  0  0  0  0  0  0  0  0  0  0
    5.0341    2.7643    0.3611 H   0  0  0  0  0  0  0  0  0  0  0  0
    7.2571   -1.7068    0.6287 H   0  0  0  0  0  0  0  0  0  0  0  0
   -1.6127    0.0088   -3.7792 H   0  0  0  0  0  0  0  0  0  0  0  0
   -0.4550    1.2610   -3.3107 H   0  0  0  0  0  0  0  0  0  0  0  0
   -2.0924    1.7177   -3.7993 H   0  0  0  0  0  0  0  0  0  0  0  0
    7.4706    2.5851    0.7515 H   0  0  0  0  0  0  0  0  0  0  0  0
    8.5741    0.3822    0.8843 H   0  0  0  0  0  0  0  0  0  0  0  0
   -5.8064   -0.1625   -1.4677 H   0  0  0  0  0  0  0  0  0  0  0  0
   -4.0195    0.5585    2.4321 H   0  0  0  0  0  0  0  0  0  0  0  0
   -6.1205    0.0800    3.4795 H   0  0  0  0  0  0  0  0  0  0  0  0
   -8.1033   -0.5203    2.1441 H   0  0  0  0  0  0  0  0  0  0  0  0
  1 30  1  0  0  0  0
  2 13  2  0  0  0  0
  3 19  2  0  0  0  0
  4 10  1  0  0  0  0
  4 12  1  0  0  0  0
  4 13  1  0  0  0  0
  5  6  1  0  0  0  0
  5 19  1  0  0  0  0
  5 22  1  0  0  0  0
  6 18  1  0  0  0  0
  6 34  1  0  0  0  0
  7 10  2  0  0  0  0
  7 17  1  0  0  0  0
  8 27  3  0  0  0  0
  9 11  1  0  0  0  0
  9 13  1  0  0  0  0
  9 16  2  0  0  0  0
 10 15  1  0  0  0  0
 11 15  2  0  0  0  0
 11 20  1  0  0  0  0
 12 17  1  0  0  0  0
 12 21  2  0  0  0  0
 14 16  1  0  0  0  0
 14 18  2  0  0  0  0
 14 19  1  0  0  0  0
 15 27  1  0  0  0  0
 16 33  1  0  0  0  0
 17 23  2  0  0  0  0
 18 24  1  0  0  0  0
 20 35  1  0  0  0  0
 20 36  1  0  0  0  0
 20 37  1  0  0  0  0
 21 25  1  0  0  0  0
 21 38  1  0  0  0  0
 22 28  2  0  0  0  0
 22 29  1  0  0  0  0
 23 26  1  0  0  0  0
 23 39  1  0  0  0  0
 24 40  1  0  0  0  0
 24 41  1  0  0  0  0
 24 42  1  0  0  0  0
 25 26  2  0  0  0  0
 25 43  1  0  0  0  0
 26 44  1  0  0  0  0
 28 30  1  0  0  0  0
 28 45  1  0  0  0  0
 29 31  2  0  0  0  0
 29 46  1  0  0  0  0
 30 32  2  0  0  0  0
 31 32  1  0  0  0  0
 31 47  1  0  0  0  0
 32 48  1  0  0  0  0
M  END
> <PUBCHEM_COMPOUND_CID>
6017349

> <PUBCHEM_CONFORMER_RMSD>
0.8

> <PUBCHEM_CONFORMER_DIVERSEORDER>
1
4
7
5
2
3
8
6

> <PUBCHEM_MMFF94_PARTIAL_CHARGES>
42
1 -0.11
10 0.14
11 -0.14
12 -0.15
13 0.56
14 0.01
15 0.11
16 -0.15
17 0.23
18 -0.04
19 0.62
2 -0.57
20 0.14
21 -0.15
22 0.12
23 -0.15
24 0.14
25 -0.15
26 -0.15
27 0.49
28 -0.15
29 -0.15
3 -0.57
30 0.11
31 -0.15
32 -0.15
33 0.15
34 0.4
38 0.15
39 0.15
4 0.29
43 0.15
44 0.15
45 0.15
46 0.15
47 0.15
48 0.15
5 -0.16
6 -0.52
7 -0.57
8 -0.56
9 0.01

> <PUBCHEM_EFFECTIVE_ROTOR_COUNT>
2

> <PUBCHEM_PHARMACOPHORE_FEATURES>
10
1 1 hydrophobe
1 2 acceptor
1 3 acceptor
1 6 donor
1 8 acceptor
5 4 7 10 12 17 rings
5 5 6 14 18 19 rings
6 12 17 21 23 25 26 rings
6 22 28 29 30 31 32 rings
6 4 9 10 11 13 15 rings

> <PUBCHEM_HEAVY_ATOM_COUNT>
32

> <PUBCHEM_ATOM_DEF_STEREO_COUNT>
0

> <PUBCHEM_ATOM_UDEF_STEREO_COUNT>
0

> <PUBCHEM_BOND_DEF_STEREO_COUNT>
1

> <PUBCHEM_BOND_UDEF_STEREO_COUNT>
0

> <PUBCHEM_ISOTOPIC_ATOM_COUNT>
0

> <PUBCHEM_COMPONENT_COUNT>
1

> <PUBCHEM_CACTVS_TAUTO_COUNT>
6

> <PUBCHEM_CONFORMER_ID>
005BD14500000001

> <PUBCHEM_MMFF94_ENERGY>
114.8547

> <PUBCHEM_FEATURE_SELFOVERLAP>
50.961

> <PUBCHEM_SHAPE_FINGERPRINT>
10 15 17967811682934734856
10162869 55 18340760542392320919
11421498 54 17632017434202579202
11719270 70 18409166614790030410
12035758 1 18334004021959759912
12202916 173 17748825228753234147
12236239 1 17632860815276328833
12596602 18 17632302242158346211
12741549 16 18040990739546208901
12857493 111 17385441029651813933
13383668 1 17458611307744785211
13402501 40 18041001734534904939
13540713 4 17972311824311468966
13782708 43 17677613064478010842
13811026 1 18113614564754226283
13914758 101 12324233949867238887
14028597 1 17775291525699959746
14251764 18 17846499257563871945
14294032 229 15841548549300722037
14341114 328 17775006778285196799
14394314 77 17988652857167609233
14849402 71 17988360489684571144
14856354 85 16486969635905720141
15188451 53 15213016051138235640
15328829 1 17632570574630219637
15510800 12 17604165804439869251
15728490 51 18131067186622907911
15849732 13 13118001114884372152
19303781 99 16879926394491371483
19315958 150 18340212899892610227
19319366 153 18131066022132882406
19377110 9 18060139804121503451
20105231 36 18341054022220063390
21033648 29 18115845487502850836
21267235 1 18411137997011502812
21521721 280 18343300401267432848
21623969 137 18335422352634777146
21781051 124 18114477699575249722
22149856 69 18263940868562427713
22224240 67 18413387661319373090
22956985 138 17535459332770357074
23559900 14 15575008328802234149
23576562 1 9366757703534896650
3004659 81 13912607190653109501
3178227 256 18409731776936393960
335352 9 18412829089087509430
350125 39 18338513157535899446
3633792 109 18410851033251230253
3663271 9 17846505799110372083
4093350 32 16917074326505530406
5104073 3 18189334559036492184
5758199 1 18202565098797114354
59755656 520 17988920097931240014
6126387 218 18408039594956844673
6703917 75 14404911327446005293

> <PUBCHEM_SHAPE_MULTIPOLES>
627.84
21.45
2.35
1.71
12.95
2.32
-0.54
-0.03
8.22
-3.51
-0.38
3.25
-0.56
0.48

> <PUBCHEM_SHAPE_SELFOVERLAP>
1401.774

> <PUBCHEM_SHAPE_VOLUME>
341.5

> <PUBCHEM_COORDINATE_TYPE>
2
5
10

$$$$
