11532048
  -OEChem-03202504363D

 51 54  0     1  0  0  0  0  0999 V2000
    6.8004    0.3756    1.7885 Cl  0  0  0  0  0  0  0  0  0  0  0  0
    7.3637   -2.1922    0.4190 F   0  0  0  0  0  0  0  0  0  0  0  0
   -6.0543   -0.4846   -0.1016 O   0  0  0  0  0  0  0  0  0  0  0  0
   -3.5398    2.2785    0.6585 O   0  0  0  0  0  0  0  0  0  0  0  0
   -3.4620   -1.1032   -0.0692 N   0  0  2  0  0  0  0  0  0  0  0  0
   -6.5364   -2.0815    1.4831 N   0  0  0  0  0  0  0  0  0  0  0  0
    0.8071    3.5370   -0.8174 N   0  0  0  0  0  0  0  0  0  0  0  0
    2.2043   -0.3334   -0.3726 N   0  0  0  0  0  0  0  0  0  0  0  0
    2.5818    1.9133   -0.9603 N   0  0  0  0  0  0  0  0  0  0  0  0
   -4.4012   -2.1371    0.3789 C   0  0  2  0  0  0  0  0  0  0  0  0
   -4.4277   -3.1810   -0.7377 C   0  0  0  0  0  0  0  0  0  0  0  0
   -2.5368   -1.7556   -0.9964 C   0  0  0  0  0  0  0  0  0  0  0  0
   -3.4687   -2.6483   -1.7922 C   0  0  0  0  0  0  0  0  0  0  0  0
   -2.7674   -0.4458    1.0296 C   0  0  0  0  0  0  0  0  0  0  0  0
   -5.7336   -1.4801    0.5429 C   0  0  0  0  0  0  0  0  0  0  0  0
   -1.8214    0.6177    0.5388 C   0  0  0  0  0  0  0  0  0  0  0  0
   -2.2548    1.9219    0.3787 C   0  0  0  0  0  0  0  0  0  0  0  0
   -0.5117    0.2717    0.2501 C   0  0  0  0  0  0  0  0  0  0  0  0
    0.3802    1.2567   -0.2088 C   0  0  0  0  0  0  0  0  0  0  0  0
   -1.3618    2.8958   -0.0783 C   0  0  0  0  0  0  0  0  0  0  0  0
   -0.0374    2.5869   -0.3790 C   0  0  0  0  0  0  0  0  0  0  0  0
    1.7101    0.9868   -0.5196 C   0  0  0  0  0  0  0  0  0  0  0  0
   -3.8899    3.6468    0.4613 C   0  0  0  0  0  0  0  0  0  0  0  0
    2.0707    3.1488   -1.0838 C   0  0  0  0  0  0  0  0  0  0  0  0
    3.4945   -0.7938   -0.1733 C   0  0  0  0  0  0  0  0  0  0  0  0
    4.4077   -0.0693    0.6166 C   0  0  0  0  0  0  0  0  0  0  0  0
    3.9298   -2.0004   -0.7544 C   0  0  0  0  0  0  0  0  0  0  0  0
    5.7075   -0.5341    0.8181 C   0  0  0  0  0  0  0  0  0  0  0  0
    5.2293   -2.4652   -0.5531 C   0  0  0  0  0  0  0  0  0  0  0  0
    6.1181   -1.7321    0.2333 C   0  0  0  0  0  0  0  0  0  0  0  0
   -4.0819   -2.6114    1.3158 H   0  0  0  0  0  0  0  0  0  0  0  0
   -5.4215   -3.3578   -1.1625 H   0  0  0  0  0  0  0  0  0  0  0  0
   -4.0496   -4.1371   -0.3556 H   0  0  0  0  0  0  0  0  0  0  0  0
   -1.7924   -2.3727   -0.4773 H   0  0  0  0  0  0  0  0  0  0  0  0
   -2.0316   -1.0547   -1.6676 H   0  0  0  0  0  0  0  0  0  0  0  0
   -2.9389   -3.4509   -2.3136 H   0  0  0  0  0  0  0  0  0  0  0  0
   -4.0203   -2.0613   -2.5371 H   0  0  0  0  0  0  0  0  0  0  0  0
   -2.2098   -1.1726    1.6377 H   0  0  0  0  0  0  0  0  0  0  0  0
   -3.4926    0.0039    1.7201 H   0  0  0  0  0  0  0  0  0  0  0  0
   -0.1889   -0.7538    0.4058 H   0  0  0  0  0  0  0  0  0  0  0  0
   -7.4624   -1.7198    1.6859 H   0  0  0  0  0  0  0  0  0  0  0  0
   -6.2466   -2.9053    2.0005 H   0  0  0  0  0  0  0  0  0  0  0  0
   -1.6450    3.9346   -0.2231 H   0  0  0  0  0  0  0  0  0  0  0  0
    1.5666   -1.0378   -0.7321 H   0  0  0  0  0  0  0  0  0  0  0  0
   -3.3273    4.3088    1.1285 H   0  0  0  0  0  0  0  0  0  0  0  0
   -4.9461    3.7497    0.7319 H   0  0  0  0  0  0  0  0  0  0  0  0
   -3.8040    3.9390   -0.5909 H   0  0  0  0  0  0  0  0  0  0  0  0
    2.7461    3.9188   -1.4361 H   0  0  0  0  0  0  0  0  0  0  0  0
    4.0963    0.8590    1.0921 H   0  0  0  0  0  0  0  0  0  0  0  0
    3.2503   -2.5849   -1.3710 H   0  0  0  0  0  0  0  0  0  0  0  0
    5.5494   -3.3978   -1.0081 H   0  0  0  0  0  0  0  0  0  0  0  0
  1 28  1  0  0  0  0
  2 30  1  0  0  0  0
  3 15  2  0  0  0  0
  4 17  1  0  0  0  0
  4 23  1  0  0  0  0
  5 10  1  0  0  0  0
  5 12  1  0  0  0  0
  5 14  1  0  0  0  0
  6 15  1  0  0  0  0
  6 41  1  0  0  0  0
  6 42  1  0  0  0  0
  7 21  1  0  0  0  0
  7 24  2  0  0  0  0
  8 22  1  0  0  0  0
  8 25  1  0  0  0  0
  8 44  1  0  0  0  0
  9 22  2  0  0  0  0
  9 24  1  0  0  0  0
 10 11  1  0  0  0  0
 10 15  1  0  0  0  0
 10 31  1  0  0  0  0
 11 13  1  0  0  0  0
 11 32  1  0  0  0  0
 11 33  1  0  0  0  0
 12 13  1  0  0  0  0
 12 34  1  0  0  0  0
 12 35  1  0  0  0  0
 13 36  1  0  0  0  0
 13 37  1  0  0  0  0
 14 16  1  0  0  0  0
 14 38  1  0  0  0  0
 14 39  1  0  0  0  0
 16 17  1  0  0  0  0
 16 18  2  0  0  0  0
 17 20  2  0  0  0  0
 18 19  1  0  0  0  0
 18 40  1  0  0  0  0
 19 21  2  0  0  0  0
 19 22  1  0  0  0  0
 20 21  1  0  0  0  0
 20 43  1  0  0  0  0
 23 45  1  0  0  0  0
 23 46  1  0  0  0  0
 23 47  1  0  0  0  0
 24 48  1  0  0  0  0
 25 26  2  0  0  0  0
 25 27  1  0  0  0  0
 26 28  1  0  0  0  0
 26 49  1  0  0  0  0
 27 29  2  0  0  0  0
 27 50  1  0  0  0  0
 28 30  2  0  0  0  0
 29 30  1  0  0  0  0
 29 51  1  0  0  0  0
M  END
> <PUBCHEM_COMPOUND_CID>
11532048

> <PUBCHEM_CONFORMER_RMSD>
0.8

> <PUBCHEM_CONFORMER_DIVERSEORDER>
1
267
317
323
170
160
173
117
292
169
141
259
306
75
249
38
281
31
172
257
137
158
238
52
139
48
240
187
68
282
320
167
119
35
186
193
309
163
176
30
162
328
297
284
307
315
94
142
161
23
233
253
324
159
5
155
322
111
205
149
4
44
264
99
76
303
295
204
262
225
26
271
145
125
283
69
318
197
180
302
115
62
84
196
146
51
177
152
143
34
254
123
153
147
241
229
106
182
321
211
319
134
218
126
33
261
263
140
40
98
301
3
74
168
234
175
20
47
228
308
213
90
239
82
247
316
129
28
113
305
224
215
104
72
85
286
221
244
6
54
53
183
65
57
27
49
178
92
154
192
237
184
203
255
96
60
280
121
157
217
88
304
130
232
269
326
19
277
181
116
131
278
208
144
242
245
236
122
22
248
18
270
108
252
250
272
179
200
312
214
310
67
110
296
206
258
109
209
246
12
59
189
230
132
275
11
81
227
83
80
148
105
279
327
235
166
24
55
293
46
185
89
138
151
15
251
95
212
86
276
97
9
63
191
290
201
288
13
112
171
199
190
32
120
64
198
41
220
150
325
70
216
29
128
17
77
56
285
188
298
202
87
256
58
223
21
174
314
294
107
135
265
133
291
274
127
207
42
313
311
103
50
14
7
91
219
100
124
16
114
61
226
2
299
66
79
78
101
93
118
8
73
37
36
195
102
300
164
273
25
210
39
71
136
165
266
287
243
10
43
194
289
268
260
231
222
156
45

> <PUBCHEM_MMFF94_PARTIAL_CHARGES>
36
1 -0.18
10 0.33
12 0.27
14 0.41
15 0.57
16 -0.14
17 0.08
18 -0.15
2 -0.19
20 -0.15
21 0.31
22 0.41
23 0.28
24 0.47
25 0.1
26 -0.15
27 -0.15
28 0.18
29 -0.15
3 -0.57
30 0.19
4 -0.36
40 0.15
41 0.37
42 0.37
43 0.15
44 0.4
48 0.15
49 0.15
5 -0.81
50 0.15
51 0.15
6 -0.8
7 -0.62
8 -0.6
9 -0.62

> <PUBCHEM_EFFECTIVE_ROTOR_COUNT>
7

> <PUBCHEM_PHARMACOPHORE_FEATURES>
11
1 3 acceptor
1 4 acceptor
1 5 cation
1 6 donor
1 8 donor
3 7 9 24 cation
3 8 9 22 cation
5 5 10 11 12 13 rings
6 16 17 18 19 20 21 rings
6 25 26 27 28 29 30 rings
6 7 9 19 21 22 24 rings

> <PUBCHEM_HEAVY_ATOM_COUNT>
30

> <PUBCHEM_ATOM_DEF_STEREO_COUNT>
1

> <PUBCHEM_ATOM_UDEF_STEREO_COUNT>
0

> <PUBCHEM_BOND_DEF_STEREO_COUNT>
0

> <PUBCHEM_BOND_UDEF_STEREO_COUNT>
0

> <PUBCHEM_ISOTOPIC_ATOM_COUNT>
0

> <PUBCHEM_COMPONENT_COUNT>
1

> <PUBCHEM_CACTVS_TAUTO_COUNT>
6

> <PUBCHEM_CONFORMER_ID>
00AFF71000000001

> <PUBCHEM_MMFF94_ENERGY>
103.5859

> <PUBCHEM_FEATURE_SELFOVERLAP>
55.994

> <PUBCHEM_SHAPE_FINGERPRINT>
10050765 1 18408890645872404556
10622 236 18335697260638290238
11135609 12 18408598188589841244
11135926 11 17976256060462822052
11552529 35 18129374917762311194
12107183 9 18341061752891586131
12422481 6 17846509122966945487
12623949 98 17916597440746723814
12633257 1 15769770307728763702
13004483 165 18341335599827219101
13540713 5 18262540154883669229
13583140 156 17489293188349564920
13782708 43 18200589195521081502
13911987 19 17251756049062925765
14114206 34 16950565433033184756
14117953 113 18342742892937654447
14347332 77 18408889568130258885
1454969 45 18337390565329212572
14844126 61 18341049631997907307
15042514 8 18339366266779660173
15131766 46 15577858245360550093
15183329 4 11097844169651981706
15361156 5 18115887221799603972
17492 89 18337113483317847563
17686467 74 18334852828209967720
19141452 34 18268432334844000108
19301679 30 18338808896168078675
19315092 285 16986305251751709195
19319366 153 17331121005994854717
21421861 104 18269005347757772005
21792934 111 18413670232383117689
229767 44 18201723951027964071
23559900 14 18337947995606171249
23622692 118 18409730676950057861
249057 3 18261952956393805149
25147074 1 18262253186675195100
3383291 50 18334017215978663163
397830 11 18131339809861315114
4073 2 18270676464368015994
4461854 278 18201167641168361774
463206 1 18194401323466167319
5080951 261 18191562204154285164
5104073 3 18200020752056062786
559249 180 18336547119102757377
5924683 9 18342735200144408594
613672 6 18261114101614269586
7164475 11 18338237175780844493
7970288 3 18338514260900506515

> <PUBCHEM_SHAPE_MULTIPOLES>
575.34
16.57
4.52
1.22
12.35
2.4
0.05
-14.89
5.95
-3.34
-1.25
0.08
-0.24
-0.68

> <PUBCHEM_SHAPE_SELFOVERLAP>
1249.903

> <PUBCHEM_SHAPE_VOLUME>
316.2

> <PUBCHEM_COORDINATE_TYPE>
2
5
10

$$$$
