25145145
  -OEChem-03232505173D

 47 51  0     1  0  0  0  0  0999 V2000
    2.0697   -3.3214    0.1888 S   0  0  0  0  0  0  0  0  0  0  0  0
    8.0434    0.9433    1.1859 F   0  0  0  0  0  0  0  0  0  0  0  0
    7.3212    2.5367   -0.1150 F   0  0  0  0  0  0  0  0  0  0  0  0
    5.1888   -0.0429   -0.0847 N   0  0  1  0  0  0  0  0  0  0  0  0
    3.4939   -2.6172   -0.2997 N   0  0  0  0  0  0  0  0  0  0  0  0
   -3.4095    0.0461   -0.0369 N   0  0  0  0  0  0  0  0  0  0  0  0
   -0.2916   -1.9435    0.1188 N   0  0  0  0  0  0  0  0  0  0  0  0
   -3.2039   -2.0617    0.6609 N   0  0  0  0  0  0  0  0  0  0  0  0
   -0.6993    0.2506   -0.5732 N   0  0  0  0  0  0  0  0  0  0  0  0
   -8.0107    1.0064    0.0808 N   0  0  0  0  0  0  0  0  0  0  0  0
   -7.3820    2.1766    0.2846 N   0  0  0  0  0  0  0  0  0  0  0  0
    6.5216    0.3641   -0.5446 C   0  0  0  0  0  0  0  0  0  0  0  0
    4.6138    1.1258    0.5826 C   0  0  0  0  0  0  0  0  0  0  0  0
    6.9718    1.3793    0.4933 C   0  0  0  0  0  0  0  0  0  0  0  0
    5.7895    1.6086    1.4132 C   0  0  0  0  0  0  0  0  0  0  0  0
    4.3508   -0.5402   -1.1649 C   0  0  0  0  0  0  0  0  0  0  0  0
    3.2272   -1.3713   -0.6842 C   0  0  0  0  0  0  0  0  0  0  0  0
    1.8727   -0.9390   -0.6004 C   0  0  0  0  0  0  0  0  0  0  0  0
    1.0806   -1.9558   -0.1127 C   0  0  0  0  0  0  0  0  0  0  0  0
   -2.5702   -1.0141    0.1877 C   0  0  0  0  0  0  0  0  0  0  0  0
   -1.1524   -0.8930   -0.0979 C   0  0  0  0  0  0  0  0  0  0  0  0
   -4.6676   -0.3514    0.3172 C   0  0  0  0  0  0  0  0  0  0  0  0
   -2.9078    1.2306   -0.5348 C   0  0  0  0  0  0  0  0  0  0  0  0
   -1.5842    1.3049   -0.7878 C   0  0  0  0  0  0  0  0  0  0  0  0
   -5.9117    0.4287    0.2593 C   0  0  0  0  0  0  0  0  0  0  0  0
   -4.5149   -1.6536    0.7442 C   0  0  0  0  0  0  0  0  0  0  0  0
   -0.9644    2.5575   -1.3304 C   0  0  0  0  0  0  0  0  0  0  0  0
   -7.1750   -0.0713    0.0570 C   0  0  0  0  0  0  0  0  0  0  0  0
   -6.1000    1.8173    0.3928 C   0  0  0  0  0  0  0  0  0  0  0  0
    6.4815    0.8385   -1.5327 H   0  0  0  0  0  0  0  0  0  0  0  0
    7.1922   -0.4994   -0.5872 H   0  0  0  0  0  0  0  0  0  0  0  0
    3.7601    0.8706    1.2178 H   0  0  0  0  0  0  0  0  0  0  0  0
    4.3091    1.9017   -0.1313 H   0  0  0  0  0  0  0  0  0  0  0  0
    5.6797    2.6596    1.6959 H   0  0  0  0  0  0  0  0  0  0  0  0
    5.8917    1.0079    2.3247 H   0  0  0  0  0  0  0  0  0  0  0  0
    4.9573   -1.1722   -1.8303 H   0  0  0  0  0  0  0  0  0  0  0  0
    3.9872    0.2787   -1.8003 H   0  0  0  0  0  0  0  0  0  0  0  0
    1.5659    0.0543   -0.8895 H   0  0  0  0  0  0  0  0  0  0  0  0
   -0.6951   -2.8031    0.4859 H   0  0  0  0  0  0  0  0  0  0  0  0
   -3.5831    2.0537   -0.7206 H   0  0  0  0  0  0  0  0  0  0  0  0
   -5.2783   -2.3257    1.1107 H   0  0  0  0  0  0  0  0  0  0  0  0
   -0.2015    2.9324   -0.6401 H   0  0  0  0  0  0  0  0  0  0  0  0
   -1.7015    3.3536   -1.4792 H   0  0  0  0  0  0  0  0  0  0  0  0
   -0.4882    2.3571   -2.2959 H   0  0  0  0  0  0  0  0  0  0  0  0
   -7.5528   -1.0720   -0.0998 H   0  0  0  0  0  0  0  0  0  0  0  0
   -5.3714    2.5923    0.5816 H   0  0  0  0  0  0  0  0  0  0  0  0
   -9.0163    1.0158   -0.0350 H   0  0  0  0  0  0  0  0  0  0  0  0
  1  5  1  0  0  0  0
  1 19  1  0  0  0  0
  2 14  1  0  0  0  0
  3 14  1  0  0  0  0
  4 12  1  0  0  0  0
  4 13  1  0  0  0  0
  4 16  1  0  0  0  0
  5 17  2  0  0  0  0
  6 20  1  0  0  0  0
  6 22  1  0  0  0  0
  6 23  1  0  0  0  0
  7 19  1  0  0  0  0
  7 21  1  0  0  0  0
  7 39  1  0  0  0  0
  8 20  2  0  0  0  0
  8 26  1  0  0  0  0
  9 21  2  0  0  0  0
  9 24  1  0  0  0  0
 10 11  1  0  0  0  0
 10 28  1  0  0  0  0
 10 47  1  0  0  0  0
 11 29  2  0  0  0  0
 12 14  1  0  0  0  0
 12 30  1  0  0  0  0
 12 31  1  0  0  0  0
 13 15  1  0  0  0  0
 13 32  1  0  0  0  0
 13 33  1  0  0  0  0
 14 15  1  0  0  0  0
 15 34  1  0  0  0  0
 15 35  1  0  0  0  0
 16 17  1  0  0  0  0
 16 36  1  0  0  0  0
 16 37  1  0  0  0  0
 17 18  1  0  0  0  0
 18 19  2  0  0  0  0
 18 38  1  0  0  0  0
 20 21  1  0  0  0  0
 22 25  1  0  0  0  0
 22 26  2  0  0  0  0
 23 24  2  0  0  0  0
 23 40  1  0  0  0  0
 24 27  1  0  0  0  0
 25 28  2  0  0  0  0
 25 29  1  0  0  0  0
 26 41  1  0  0  0  0
 27 42  1  0  0  0  0
 27 43  1  0  0  0  0
 27 44  1  0  0  0  0
 28 45  1  0  0  0  0
 29 46  1  0  0  0  0
M  END
> <PUBCHEM_COMPOUND_CID>
25145145

> <PUBCHEM_CONFORMER_RMSD>
1

> <PUBCHEM_CONFORMER_DIVERSEORDER>
1
55
119
5
136
67
8
10
113
110
32
135
109
115
29
141
126
82
71
102
69
111
54
15
4
112
9
34
19
129
57
24
51
76
123
62
79
142
80
14
53
73
13
74
140
81
30
61
35
90
114
47
125
143
11
41
88
43
133
86
6
64
56
72
75
122
128
132
94
96
59
117
139
45
63
46
103
37
104
16
2
120
105
58
100
20
134
84
31
83
93
18
12
78
91
107
36
118
98
70
92
27
131
25
23
106
127
33
17
116
49
130
85
48
44
42
77
52
40
89
21
65
7
26
108
121
38
101
28
124
99
3
22
68
97
137
60
66
95
138
50
87
144
39

> <PUBCHEM_MMFF94_PARTIAL_CHARGES>
34
1 0.18
10 0.3
11 -0.71
12 0.27
13 0.27
14 0.68
16 0.45
17 0.11
18 -0.15
19 0.12
2 -0.34
20 0.1
21 0.58
22 -0.15
23 -0.18
24 0.03
26 0.08
27 0.14
28 -0.3
29 0.14
3 -0.34
38 0.15
39 0.4
4 -0.81
40 0.15
41 0.15
45 0.15
46 0.15
47 0.27
5 -0.51
6 0.33
7 -0.53
8 -0.57
9 -0.62

> <PUBCHEM_EFFECTIVE_ROTOR_COUNT>
6

> <PUBCHEM_PHARMACOPHORE_FEATURES>
12
1 10 donor
1 11 acceptor
1 4 cation
1 5 acceptor
1 7 donor
3 6 8 20 cation
3 7 9 21 cation
5 1 5 17 18 19 rings
5 10 11 25 28 29 rings
5 4 12 13 14 15 rings
5 6 8 20 22 26 rings
6 6 9 20 21 23 24 rings

> <PUBCHEM_HEAVY_ATOM_COUNT>
29

> <PUBCHEM_ATOM_DEF_STEREO_COUNT>
0

> <PUBCHEM_ATOM_UDEF_STEREO_COUNT>
0

> <PUBCHEM_BOND_DEF_STEREO_COUNT>
0

> <PUBCHEM_BOND_UDEF_STEREO_COUNT>
0

> <PUBCHEM_ISOTOPIC_ATOM_COUNT>
0

> <PUBCHEM_COMPONENT_COUNT>
1

> <PUBCHEM_CACTVS_TAUTO_COUNT>
11

> <PUBCHEM_CONFORMER_ID>
017FAF3900000001

> <PUBCHEM_MMFF94_ENERGY>
56.8358

> <PUBCHEM_FEATURE_SELFOVERLAP>
61.05

> <PUBCHEM_SHAPE_FINGERPRINT>
10 15 18113901563048369200
10006869 2 18341325587968230390
10670039 82 13398640437078149395
10835480 77 18411982442984103995
10838868 160 18272080609030591888
11211813 74 18341612565072652553
11409948 41 15410071578248252172
11991303 11 15195272137022272373
12838862 33 18187354425285244269
13383665 225 18116174211340646676
13402501 40 18412543249917779608
13533116 47 17241891982273309267
13668630 136 10809340044573534648
14028597 1 16588299458605084705
14461889 52 18114471127557966659
14556957 393 15841283605109218321
14565420 104 18408038507750266690
14849402 71 18272937112015382761
15183329 4 11167946861716439804
15289351 153 18059575746831417362
18335252 114 17132119035648578944
2026 5 8214156148264982824
20465049 17 11167939151960051932
20511986 3 18334290930080844335
20642791 178 17970080026302873333
21033648 29 18270950363201829864
21130935 74 18335145233483639435
21150785 3 15482671282008149393
21792934 111 17969216751172657485
22224240 67 18335419079922601070
23559900 14 18412261753561158697
24771293 8 18410012131127249901
34797466 226 17560808693148088215
3918712 181 18337397140697861332
4073 2 18334300889477306571
4093350 32 17560806493681500308
4169191 19 18412825768566541225
445580 126 18272363166855421514
465052 167 11241970378434785570
5104073 3 18261397689350724210
59682541 35 18187088373150952129
6328613 192 18272091553055096057
636775 72 18412263930788428537

> <PUBCHEM_SHAPE_MULTIPOLES>
546.26
22.58
3
0.98
2.61
0.92
0
-15.3
-5.42
1.61
-0.05
0.92
-0.29
1.57

> <PUBCHEM_SHAPE_SELFOVERLAP>
1196.754

> <PUBCHEM_SHAPE_VOLUME>
300.7

> <PUBCHEM_COORDINATE_TYPE>
2
5
10

$$$$
