44352847
  -OEChem-03202500133D

 62 69  0     1  0  0  0  0  0999 V2000
    1.1621    2.0464    1.7080 O   0  0  0  0  0  0  0  0  0  0  0  0
    3.8842    1.4805   -0.7671 O   0  0  0  0  0  0  0  0  0  0  0  0
   -4.1788   -2.1283   -1.4138 O   0  0  0  0  0  0  0  0  0  0  0  0
   -0.9229   -4.8122   -0.1724 O   0  0  0  0  0  0  0  0  0  0  0  0
    1.6215    0.0077    0.6073 N   0  0  0  0  0  0  0  0  0  0  0  0
   -0.8217    1.7567    0.5532 N   0  0  0  0  0  0  0  0  0  0  0  0
    1.2524    1.6941   -1.9347 N   0  0  0  0  0  0  0  0  0  0  0  0
   -3.0238   -3.7958   -0.2623 N   0  0  0  0  0  0  0  0  0  0  0  0
    2.1817    1.2880    1.0503 C   0  0  1  0  0  0  0  0  0  0  0  0
    2.8418    2.1445   -0.0683 C   0  0  2  0  0  0  0  0  0  0  0  0
    0.2184    2.6924    0.8853 C   0  0  2  0  0  0  0  0  0  0  0  0
    1.8482    2.7198   -1.0809 C   0  0  2  0  0  0  0  0  0  0  0  0
    0.7824    3.4786   -0.3013 C   0  0  0  0  0  0  0  0  0  0  0  0
    0.3237   -0.4323    0.4371 C   0  0  0  0  0  0  0  0  0  0  0  0
   -0.8349    0.3990    0.4213 C   0  0  0  0  0  0  0  0  0  0  0  0
    0.0418   -1.8405    0.2038 C   0  0  0  0  0  0  0  0  0  0  0  0
   -2.0930   -0.2849    0.2083 C   0  0  0  0  0  0  0  0  0  0  0  0
    2.3345   -1.1860    0.3656 C   0  0  0  0  0  0  0  0  0  0  0  0
    3.1795    1.0929    2.2180 C   0  0  0  0  0  0  0  0  0  0  0  0
   -2.1732    2.0829    0.4114 C   0  0  0  0  0  0  0  0  0  0  0  0
   -2.3375   -1.6417    0.0390 C   0  0  0  0  0  0  0  0  0  0  0  0
    1.4342   -2.2826    0.1718 C   0  0  0  0  0  0  0  0  0  0  0  0
   -1.2076   -2.4439    0.0483 C   0  0  0  0  0  0  0  0  0  0  0  0
   -2.9451    0.9027    0.2256 C   0  0  0  0  0  0  0  0  0  0  0  0
   -3.5673   -2.4590   -0.1834 C   0  0  1  0  0  0  0  0  0  0  0  0
   -1.6381   -3.8303   -0.1425 C   0  0  0  0  0  0  0  0  0  0  0  0
    3.7278   -1.4235    0.3047 C   0  0  0  0  0  0  0  0  0  0  0  0
   -2.7907    3.3502    0.4428 C   0  0  0  0  0  0  0  0  0  0  0  0
    1.9967   -3.5685   -0.0500 C   0  0  0  0  0  0  0  0  0  0  0  0
   -4.3487    1.0433    0.0838 C   0  0  0  0  0  0  0  0  0  0  0  0
    0.7191    2.2813   -3.1554 C   0  0  0  0  0  0  0  0  0  0  0  0
    4.8500    2.3988   -1.2625 C   0  0  0  0  0  0  0  0  0  0  0  0
    4.2313   -2.7058    0.0828 C   0  0  0  0  0  0  0  0  0  0  0  0
    3.3749   -3.7723   -0.0880 C   0  0  0  0  0  0  0  0  0  0  0  0
   -4.1756    3.4429    0.2946 C   0  0  0  0  0  0  0  0  0  0  0  0
   -4.9473    2.3047    0.1195 C   0  0  0  0  0  0  0  0  0  0  0  0
    3.2765    3.0109    0.4561 H   0  0  0  0  0  0  0  0  0  0  0  0
   -0.2557    3.4255    1.5492 H   0  0  0  0  0  0  0  0  0  0  0  0
    2.3769    3.4389   -1.7175 H   0  0  0  0  0  0  0  0  0  0  0  0
    1.2693    4.3752    0.1090 H   0  0  0  0  0  0  0  0  0  0  0  0
   -0.0199    3.8528   -0.9461 H   0  0  0  0  0  0  0  0  0  0  0  0
    2.7856    0.3890    2.9614 H   0  0  0  0  0  0  0  0  0  0  0  0
    3.3396    2.0402    2.7498 H   0  0  0  0  0  0  0  0  0  0  0  0
    4.1648    0.7478    1.9036 H   0  0  0  0  0  0  0  0  0  0  0  0
    1.9687    1.0144   -2.1909 H   0  0  0  0  0  0  0  0  0  0  0  0
   -4.2783   -2.3950    0.6451 H   0  0  0  0  0  0  0  0  0  0  0  0
    4.4467   -0.6209    0.4135 H   0  0  0  0  0  0  0  0  0  0  0  0
   -2.2067    4.2557    0.5792 H   0  0  0  0  0  0  0  0  0  0  0  0
    1.3622   -4.4319   -0.2100 H   0  0  0  0  0  0  0  0  0  0  0  0
   -3.5930   -4.6257   -0.3948 H   0  0  0  0  0  0  0  0  0  0  0  0
   -4.9775    0.1680   -0.0547 H   0  0  0  0  0  0  0  0  0  0  0  0
   -0.1005    2.9782   -2.9598 H   0  0  0  0  0  0  0  0  0  0  0  0
    0.3114    1.4831   -3.7842 H   0  0  0  0  0  0  0  0  0  0  0  0
    1.4955    2.7907   -3.7359 H   0  0  0  0  0  0  0  0  0  0  0  0
    5.6604    1.8177   -1.7123 H   0  0  0  0  0  0  0  0  0  0  0  0
    5.2774    2.9977   -0.4522 H   0  0  0  0  0  0  0  0  0  0  0  0
    4.4365    3.0449   -2.0403 H   0  0  0  0  0  0  0  0  0  0  0  0
    5.3060   -2.8606    0.0411 H   0  0  0  0  0  0  0  0  0  0  0  0
    3.7704   -4.7685   -0.2631 H   0  0  0  0  0  0  0  0  0  0  0  0
   -4.6523    4.4192    0.3189 H   0  0  0  0  0  0  0  0  0  0  0  0
   -6.0245    2.3920    0.0079 H   0  0  0  0  0  0  0  0  0  0  0  0
   -4.8038   -2.8442   -1.6184 H   0  0  0  0  0  0  0  0  0  0  0  0
  1  9  1  0  0  0  0
  1 11  1  0  0  0  0
  2 10  1  0  0  0  0
  2 32  1  0  0  0  0
  3 25  1  0  0  0  0
  3 62  1  0  0  0  0
  4 26  2  0  0  0  0
  5  9  1  0  0  0  0
  5 14  1  0  0  0  0
  5 18  1  0  0  0  0
  6 11  1  0  0  0  0
  6 15  1  0  0  0  0
  6 20  1  0  0  0  0
  7 12  1  0  0  0  0
  7 31  1  0  0  0  0
  7 45  1  0  0  0  0
  8 25  1  0  0  0  0
  8 26  1  0  0  0  0
  8 50  1  0  0  0  0
  9 10  1  0  0  0  0
  9 19  1  0  0  0  0
 10 12  1  0  0  0  0
 10 37  1  0  0  0  0
 11 13  1  0  0  0  0
 11 38  1  0  0  0  0
 12 13  1  0  0  0  0
 12 39  1  0  0  0  0
 13 40  1  0  0  0  0
 13 41  1  0  0  0  0
 14 15  2  0  0  0  0
 14 16  1  0  0  0  0
 15 17  1  0  0  0  0
 16 22  1  0  0  0  0
 16 23  2  0  0  0  0
 17 21  2  0  0  0  0
 17 24  1  0  0  0  0
 18 22  1  0  0  0  0
 18 27  2  0  0  0  0
 19 42  1  0  0  0  0
 19 43  1  0  0  0  0
 19 44  1  0  0  0  0
 20 24  1  0  0  0  0
 20 28  2  0  0  0  0
 21 23  1  0  0  0  0
 21 25  1  0  0  0  0
 22 29  2  0  0  0  0
 23 26  1  0  0  0  0
 24 30  2  0  0  0  0
 25 46  1  0  0  0  0
 27 33  1  0  0  0  0
 27 47  1  0  0  0  0
 28 35  1  0  0  0  0
 28 48  1  0  0  0  0
 29 34  1  0  0  0  0
 29 49  1  0  0  0  0
 30 36  1  0  0  0  0
 30 51  1  0  0  0  0
 31 52  1  0  0  0  0
 31 53  1  0  0  0  0
 31 54  1  0  0  0  0
 32 55  1  0  0  0  0
 32 56  1  0  0  0  0
 32 57  1  0  0  0  0
 33 34  2  0  0  0  0
 33 58  1  0  0  0  0
 34 59  1  0  0  0  0
 35 36  2  0  0  0  0
 35 60  1  0  0  0  0
 36 61  1  0  0  0  0
M  END
> <PUBCHEM_COMPOUND_CID>
44352847

> <PUBCHEM_CONFORMER_RMSD>
0.8

> <PUBCHEM_CONFORMER_DIVERSEORDER>
1
2

> <PUBCHEM_MMFF94_PARTIAL_CHARGES>
43
1 -0.56
10 0.28
11 0.54
12 0.27
14 -0.05
15 -0.05
16 -0.01
17 -0.01
18 -0.15
2 -0.56
20 -0.15
21 -0.14
23 0.09
25 0.72
26 0.54
27 -0.15
28 -0.15
29 -0.15
3 -0.68
30 -0.15
31 0.27
32 0.28
33 -0.15
34 -0.15
35 -0.15
36 -0.15
4 -0.57
45 0.36
47 0.15
48 0.15
49 0.15
5 -0.04
50 0.37
51 0.15
58 0.15
59 0.15
6 -0.04
60 0.15
61 0.15
62 0.4
7 -0.9
8 -0.73
9 0.54

> <PUBCHEM_EFFECTIVE_ROTOR_COUNT>
3.2

> <PUBCHEM_PHARMACOPHORE_FEATURES>
18
1 1 acceptor
1 2 acceptor
1 3 acceptor
1 3 donor
1 4 acceptor
1 5 cation
1 6 cation
1 7 cation
1 7 donor
1 8 donor
5 5 14 16 18 22 rings
5 6 15 17 20 24 rings
5 8 21 23 25 26 rings
6 1 9 10 11 12 13 rings
6 14 15 16 17 21 23 rings
6 18 22 27 29 33 34 rings
6 20 24 28 30 35 36 rings
7 1 5 6 9 11 14 15 rings

> <PUBCHEM_HEAVY_ATOM_COUNT>
36

> <PUBCHEM_ATOM_DEF_STEREO_COUNT>
5

> <PUBCHEM_ATOM_UDEF_STEREO_COUNT>
0

> <PUBCHEM_BOND_DEF_STEREO_COUNT>
0

> <PUBCHEM_BOND_UDEF_STEREO_COUNT>
0

> <PUBCHEM_ISOTOPIC_ATOM_COUNT>
0

> <PUBCHEM_COMPONENT_COUNT>
1

> <PUBCHEM_CACTVS_TAUTO_COUNT>
2

> <PUBCHEM_CONFORMER_ID>
02A4C54F00000001

> <PUBCHEM_MMFF94_ENERGY>
149.9963

> <PUBCHEM_FEATURE_SELFOVERLAP>
92.543

> <PUBCHEM_SHAPE_FINGERPRINT>
10190108 129 17688067449042686307
10675989 125 17978497960888248101
10940486 97 18409169900682507790
1100329 8 18268147565447869651
11227688 84 17836927067904412022
11513181 2 18273215296092213398
12422481 6 18115289108928312480
12553582 1 17979070810593775755
12788726 201 18118680161100257315
13140716 1 18269262478912836915
140371 6 18265603463119039907
14117953 113 17762055441262749143
14178342 30 18267848644408838128
14790565 3 17981048505083037872
15439362 3 18336548196802809084
16112460 7 18272382945232470043
16114785 44 16189958700663672920
19591789 44 17476075726753607819
20642791 178 18050020891047637273
20691752 17 17676200248002125728
20764821 26 18410853231198637679
20905425 154 18270971261779384438
22113638 7 18122622747641185927
22149856 69 18340216181749200729
23558518 356 18335134328023305859
23559900 14 18270954640493468858
244849 19 17489307555484895928
3178227 256 18051989017546561481
338550 245 18409167710417998017
350125 39 18411423878202835067
469060 322 17329721920545453282
484989 97 18410571757086966763
57527306 92 16373005108982532374

> <PUBCHEM_SHAPE_MULTIPOLES>
697.46
8.04
6.33
1.43
2.53
4.28
-0.72
-1.28
-0.03
-0.11
-1.29
-0.81
-1.48
-1.32

> <PUBCHEM_SHAPE_SELFOVERLAP>
1605.151

> <PUBCHEM_SHAPE_VOLUME>
357.7

> <PUBCHEM_COORDINATE_TYPE>
2
5
10

$$$$
