24905335
  -OEChem-03192523563D

 46 48  0     1  0  0  0  0  0999 V2000
   -5.1659   -0.6977    1.2637 O   0  0  0  0  0  0  0  0  0  0  0  0
    3.8343   -1.1959    1.9731 O   0  0  0  0  0  0  0  0  0  0  0  0
    5.3808   -0.7553   -0.2939 O   0  0  0  0  0  0  0  0  0  0  0  0
   -2.1887   -0.4712   -0.7642 N   0  0  0  0  0  0  0  0  0  0  0  0
   -0.9563   -1.0095   -0.8191 N   0  0  0  0  0  0  0  0  0  0  0  0
   -3.2662    1.6398   -0.2697 N   0  0  0  0  0  0  0  0  0  0  0  0
   -1.6445    3.3638    0.3206 N   0  0  0  0  0  0  0  0  0  0  0  0
    0.7064    2.9558    0.3835 N   0  0  0  0  0  0  0  0  0  0  0  0
   -3.7868   -2.2959    0.0473 C   0  0  1  0  0  0  0  0  0  0  0  0
   -3.3894   -1.3268   -1.0868 C   0  0  0  0  0  0  0  0  0  0  0  0
   -2.1936    0.8442   -0.4063 C   0  0  0  0  0  0  0  0  0  0  0  0
   -0.8683    1.1922   -0.2128 C   0  0  0  0  0  0  0  0  0  0  0  0
   -0.1566    0.0085   -0.4822 C   0  0  0  0  0  0  0  0  0  0  0  0
   -4.0591   -1.5807    1.3795 C   0  0  0  0  0  0  0  0  0  0  0  0
   -5.0184   -3.0999   -0.3853 C   0  0  0  0  0  0  0  0  0  0  0  0
    1.2701   -0.1886   -0.4294 C   0  0  0  0  0  0  0  0  0  0  0  0
   -0.6080    2.5056    0.1642 C   0  0  0  0  0  0  0  0  0  0  0  0
    1.8747   -0.6017    0.7577 C   0  0  0  0  0  0  0  0  0  0  0  0
    2.0463    0.0331   -1.5671 C   0  0  0  0  0  0  0  0  0  0  0  0
    3.2555   -0.7932    0.8074 C   0  0  0  0  0  0  0  0  0  0  0  0
   -2.8914    2.8844    0.0973 C   0  0  0  0  0  0  0  0  0  0  0  0
    3.4269   -0.1583   -1.5175 C   0  0  0  0  0  0  0  0  0  0  0  0
    4.0316   -0.5716   -0.3303 C   0  0  0  0  0  0  0  0  0  0  0  0
    4.2646   -0.1737    2.8698 C   0  0  0  0  0  0  0  0  0  0  0  0
    6.1015   -0.5073   -1.4995 C   0  0  0  0  0  0  0  0  0  0  0  0
   -2.9570   -2.9953    0.2119 H   0  0  0  0  0  0  0  0  0  0  0  0
   -3.1152   -1.8700   -1.9990 H   0  0  0  0  0  0  0  0  0  0  0  0
   -4.1992   -0.6314   -1.3337 H   0  0  0  0  0  0  0  0  0  0  0  0
   -3.1869   -1.0126    1.7166 H   0  0  0  0  0  0  0  0  0  0  0  0
   -4.2950   -2.3170    2.1560 H   0  0  0  0  0  0  0  0  0  0  0  0
   -5.8728   -2.4497   -0.6009 H   0  0  0  0  0  0  0  0  0  0  0  0
   -5.3158   -3.8063    0.3969 H   0  0  0  0  0  0  0  0  0  0  0  0
   -4.8008   -3.6776   -1.2902 H   0  0  0  0  0  0  0  0  0  0  0  0
    1.2770   -0.7772    1.6499 H   0  0  0  0  0  0  0  0  0  0  0  0
    1.5892    0.3558   -2.4997 H   0  0  0  0  0  0  0  0  0  0  0  0
   -3.6976    3.5975    0.2316 H   0  0  0  0  0  0  0  0  0  0  0  0
   -5.2910   -0.2812    2.1333 H   0  0  0  0  0  0  0  0  0  0  0  0
    3.9662    0.0330   -2.4388 H   0  0  0  0  0  0  0  0  0  0  0  0
    1.4984    2.3395    0.2754 H   0  0  0  0  0  0  0  0  0  0  0  0
    0.8513    3.9186    0.6565 H   0  0  0  0  0  0  0  0  0  0  0  0
    4.7081   -0.6520    3.7473 H   0  0  0  0  0  0  0  0  0  0  0  0
    3.4142    0.4342    3.1946 H   0  0  0  0  0  0  0  0  0  0  0  0
    5.0212    0.4605    2.3970 H   0  0  0  0  0  0  0  0  0  0  0  0
    7.1582   -0.7026   -1.2892 H   0  0  0  0  0  0  0  0  0  0  0  0
    6.0271    0.5418   -1.8055 H   0  0  0  0  0  0  0  0  0  0  0  0
    5.8036   -1.1965   -2.2970 H   0  0  0  0  0  0  0  0  0  0  0  0
  1 14  1  0  0  0  0
  1 37  1  0  0  0  0
  2 20  1  0  0  0  0
  2 24  1  0  0  0  0
  3 23  1  0  0  0  0
  3 25  1  0  0  0  0
  4  5  1  0  0  0  0
  4 10  1  0  0  0  0
  4 11  1  0  0  0  0
  5 13  2  0  0  0  0
  6 11  2  0  0  0  0
  6 21  1  0  0  0  0
  7 17  1  0  0  0  0
  7 21  2  0  0  0  0
  8 17  1  0  0  0  0
  8 39  1  0  0  0  0
  8 40  1  0  0  0  0
  9 10  1  0  0  0  0
  9 14  1  0  0  0  0
  9 15  1  0  0  0  0
  9 26  1  0  0  0  0
 10 27  1  0  0  0  0
 10 28  1  0  0  0  0
 11 12  1  0  0  0  0
 12 13  1  0  0  0  0
 12 17  2  0  0  0  0
 13 16  1  0  0  0  0
 14 29  1  0  0  0  0
 14 30  1  0  0  0  0
 15 31  1  0  0  0  0
 15 32  1  0  0  0  0
 15 33  1  0  0  0  0
 16 18  2  0  0  0  0
 16 19  1  0  0  0  0
 18 20  1  0  0  0  0
 18 34  1  0  0  0  0
 19 22  2  0  0  0  0
 19 35  1  0  0  0  0
 20 23  2  0  0  0  0
 21 36  1  0  0  0  0
 22 23  1  0  0  0  0
 22 38  1  0  0  0  0
 24 41  1  0  0  0  0
 24 42  1  0  0  0  0
 24 43  1  0  0  0  0
 25 44  1  0  0  0  0
 25 45  1  0  0  0  0
 25 46  1  0  0  0  0
M  END
> <PUBCHEM_COMPOUND_CID>
24905335

> <PUBCHEM_CONFORMER_RMSD>
0.8

> <PUBCHEM_CONFORMER_DIVERSEORDER>
2
31
48
61
53
12
58
45
21
35
42
44
27
62
52
33
41
22
32
49
38
51
65
56
34
17
23
39
64
20
15
54
26
55
4
14
40
57
60
19
37
59
28
29
16
43
10
8
47
46
30
36
50
24
6
25
7
63
18
5
11
9
1
13
3

> <PUBCHEM_MMFF94_PARTIAL_CHARGES>
29
1 -0.68
10 0.26
11 0.11
13 0.23
14 0.28
16 0.05
17 0.41
18 -0.15
19 -0.15
2 -0.36
20 0.08
21 0.47
22 -0.15
23 0.08
24 0.28
25 0.28
3 -0.36
34 0.15
35 0.15
36 0.15
37 0.4
38 0.15
39 0.4
4 0.31
40 0.4
5 -0.71
6 -0.57
7 -0.62
8 -0.9

> <PUBCHEM_EFFECTIVE_ROTOR_COUNT>
6

> <PUBCHEM_PHARMACOPHORE_FEATURES>
13
1 1 acceptor
1 1 donor
1 15 hydrophobe
1 2 acceptor
1 3 acceptor
1 5 acceptor
1 8 cation
1 8 donor
3 4 6 11 cation
3 6 7 21 cation
5 4 5 11 12 13 rings
6 16 18 19 20 22 23 rings
6 6 7 11 12 17 21 rings

> <PUBCHEM_HEAVY_ATOM_COUNT>
25

> <PUBCHEM_ATOM_DEF_STEREO_COUNT>
1

> <PUBCHEM_ATOM_UDEF_STEREO_COUNT>
0

> <PUBCHEM_BOND_DEF_STEREO_COUNT>
0

> <PUBCHEM_BOND_UDEF_STEREO_COUNT>
0

> <PUBCHEM_ISOTOPIC_ATOM_COUNT>
0

> <PUBCHEM_COMPONENT_COUNT>
1

> <PUBCHEM_CACTVS_TAUTO_COUNT>
5

> <PUBCHEM_CONFORMER_ID>
017C067700000002

> <PUBCHEM_MMFF94_ENERGY>
81.2492

> <PUBCHEM_FEATURE_SELFOVERLAP>
66.254

> <PUBCHEM_SHAPE_FINGERPRINT>
10319926 262 18127671770220131122
10369192 42 16412362394609492376
10411042 1 18269276923320272511
11370993 144 16702027456550474799
11545043 162 18130786720826088566
12236239 1 17968101863493487676
12403259 415 17560796615968816934
12553582 1 18411136982756266415
12596602 18 18040440980000705652
12633257 1 15482670174044010446
12788726 201 18261114079801666939
12824470 246 17822286894522681839
13009979 54 18042115458879376466
13103583 49 18046943552134552691
13140716 1 18342738542209739841
13583140 156 17702365283496456534
13782708 43 17704077266161594318
14178342 30 18263915541045382882
14787075 74 18116720814310629420
15021287 119 13973969775042605418
15042514 8 18339933606236929621
15806764 133 17489304170886779000
17138139 8 17532931821171801706
17349148 13 17749389260843059402
1813 80 18200313346159724807
18222031 100 18200307861597595647
19377110 9 17967531277251764000
200 152 17603590745976354206
20101258 96 18336838545229179049
21033648 29 17346023490186535722
21065201 7 18271239405546866926
21344244 78 17701823422154271131
22182313 1 17773612532747396727
2297311 6 18342750610787929430
23557571 272 18130228159812188420
23559900 14 18057885732792306166
3004659 81 18041557043942324039
314173 85 18343013428358231391
392239 28 18191281953343585410
4015057 19 14634871946548602846
4409770 3 18336265648880093285
5104073 3 18270677572453735042
57527293 21 17774705563575782498
633830 44 13901903466647688028
7970288 3 18340209707920318879

> <PUBCHEM_SHAPE_MULTIPOLES>
471.98
11.5
3.09
1.71
5.51
2.31
1
-8.12
0.78
-5.08
0.29
2.42
-0.57
-0.16

> <PUBCHEM_SHAPE_SELFOVERLAP>
1014.095

> <PUBCHEM_SHAPE_VOLUME>
259.9

> <PUBCHEM_COORDINATE_TYPE>
2
5
10

$$$$
