24905324
  -OEChem-03192523323D

 37 39  0     1  0  0  0  0  0999 V2000
    5.8718   -0.8743   -0.4303 Cl  0  0  0  0  0  0  0  0  0  0  0  0
    4.1776   -0.9069    2.0530 O   0  0  0  0  0  0  0  0  0  0  0  0
   -2.0688   -0.5594   -0.1876 N   0  0  0  0  0  0  0  0  0  0  0  0
   -0.8437   -1.1095   -0.2775 N   0  0  0  0  0  0  0  0  0  0  0  0
   -3.1082    1.6107    0.0824 N   0  0  0  0  0  0  0  0  0  0  0  0
   -4.4573   -3.2258    0.9164 N   0  0  0  0  0  0  0  0  0  0  0  0
   -1.4491    3.3911    0.2482 N   0  0  0  0  0  0  0  0  0  0  0  0
    0.8998    2.9789    0.1479 N   0  0  0  0  0  0  0  0  0  0  0  0
   -3.2362   -1.4059   -0.2581 C   0  0  2  0  0  0  0  0  0  0  0  0
   -2.0482    0.7951   -0.0339 C   0  0  0  0  0  0  0  0  0  0  0  0
   -0.7129    1.1579   -0.0222 C   0  0  0  0  0  0  0  0  0  0  0  0
   -0.0223   -0.0587   -0.1761 C   0  0  0  0  0  0  0  0  0  0  0  0
   -3.2485   -2.4070    0.9140 C   0  0  0  0  0  0  0  0  0  0  0  0
   -3.3278   -2.0994   -1.6238 C   0  0  0  0  0  0  0  0  0  0  0  0
    1.4042   -0.2568   -0.2302 C   0  0  0  0  0  0  0  0  0  0  0  0
   -0.4265    2.5110    0.1253 C   0  0  0  0  0  0  0  0  0  0  0  0
    2.1213   -0.4894    0.9434 C   0  0  0  0  0  0  0  0  0  0  0  0
    2.0677   -0.2159   -1.4565 C   0  0  0  0  0  0  0  0  0  0  0  0
   -2.7084    2.8935    0.2195 C   0  0  0  0  0  0  0  0  0  0  0  0
    3.5019   -0.6813    0.8908 C   0  0  0  0  0  0  0  0  0  0  0  0
    3.4482   -0.4077   -1.5092 C   0  0  0  0  0  0  0  0  0  0  0  0
    4.1653   -0.6404   -0.3355 C   0  0  0  0  0  0  0  0  0  0  0  0
   -4.1140   -0.7539   -0.1620 H   0  0  0  0  0  0  0  0  0  0  0  0
   -3.1808   -1.8671    1.8662 H   0  0  0  0  0  0  0  0  0  0  0  0
   -2.3798   -3.0736    0.8614 H   0  0  0  0  0  0  0  0  0  0  0  0
   -2.5199   -2.8269   -1.7604 H   0  0  0  0  0  0  0  0  0  0  0  0
   -4.2802   -2.6267   -1.7390 H   0  0  0  0  0  0  0  0  0  0  0  0
   -3.2555   -1.3675   -2.4364 H   0  0  0  0  0  0  0  0  0  0  0  0
   -5.2765   -2.6253    0.9996 H   0  0  0  0  0  0  0  0  0  0  0  0
   -4.4571   -3.8258    1.7403 H   0  0  0  0  0  0  0  0  0  0  0  0
    1.6046   -0.5210    1.9006 H   0  0  0  0  0  0  0  0  0  0  0  0
    1.5231   -0.0350   -2.3803 H   0  0  0  0  0  0  0  0  0  0  0  0
   -3.5028    3.6251    0.3206 H   0  0  0  0  0  0  0  0  0  0  0  0
    3.9508   -0.3727   -2.4724 H   0  0  0  0  0  0  0  0  0  0  0  0
    1.6819    2.3471    0.0588 H   0  0  0  0  0  0  0  0  0  0  0  0
    1.0636    3.9707    0.2573 H   0  0  0  0  0  0  0  0  0  0  0  0
    3.5492   -0.8986    2.7952 H   0  0  0  0  0  0  0  0  0  0  0  0
  1 22  1  0  0  0  0
  2 20  1  0  0  0  0
  2 37  1  0  0  0  0
  3  4  1  0  0  0  0
  3  9  1  0  0  0  0
  3 10  1  0  0  0  0
  4 12  2  0  0  0  0
  5 10  2  0  0  0  0
  5 19  1  0  0  0  0
  6 13  1  0  0  0  0
  6 29  1  0  0  0  0
  6 30  1  0  0  0  0
  7 16  1  0  0  0  0
  7 19  2  0  0  0  0
  8 16  1  0  0  0  0
  8 35  1  0  0  0  0
  8 36  1  0  0  0  0
  9 13  1  0  0  0  0
  9 14  1  0  0  0  0
  9 23  1  0  0  0  0
 10 11  1  0  0  0  0
 11 12  1  0  0  0  0
 11 16  2  0  0  0  0
 12 15  1  0  0  0  0
 13 24  1  0  0  0  0
 13 25  1  0  0  0  0
 14 26  1  0  0  0  0
 14 27  1  0  0  0  0
 14 28  1  0  0  0  0
 15 17  2  0  0  0  0
 15 18  1  0  0  0  0
 17 20  1  0  0  0  0
 17 31  1  0  0  0  0
 18 21  2  0  0  0  0
 18 32  1  0  0  0  0
 19 33  1  0  0  0  0
 20 22  2  0  0  0  0
 21 22  1  0  0  0  0
 21 34  1  0  0  0  0
M  END
> <PUBCHEM_COMPOUND_CID>
24905324

> <PUBCHEM_CONFORMER_RMSD>
0.6

> <PUBCHEM_CONFORMER_DIVERSEORDER>
2
7
23
14
21
10
17
20
3
6
19
24
15
16
27
11
25
8
18
13
5
4
12
9
1
26
22

> <PUBCHEM_MMFF94_PARTIAL_CHARGES>
29
1 -0.18
10 0.11
12 0.23
13 0.27
15 0.05
16 0.41
17 -0.15
18 -0.15
19 0.47
2 -0.53
20 0.08
21 -0.15
22 0.18
29 0.36
3 0.31
30 0.36
31 0.15
32 0.15
33 0.15
34 0.15
35 0.4
36 0.4
37 0.45
4 -0.71
5 -0.57
6 -0.99
7 -0.62
8 -0.9
9 0.26

> <PUBCHEM_EFFECTIVE_ROTOR_COUNT>
3

> <PUBCHEM_PHARMACOPHORE_FEATURES>
11
1 2 donor
1 4 acceptor
1 6 cation
1 6 donor
1 8 cation
1 8 donor
3 3 5 10 cation
3 5 7 19 cation
5 3 4 10 11 12 rings
6 15 17 18 20 21 22 rings
6 5 7 10 11 16 19 rings

> <PUBCHEM_HEAVY_ATOM_COUNT>
22

> <PUBCHEM_ATOM_DEF_STEREO_COUNT>
1

> <PUBCHEM_ATOM_UDEF_STEREO_COUNT>
0

> <PUBCHEM_BOND_DEF_STEREO_COUNT>
0

> <PUBCHEM_BOND_UDEF_STEREO_COUNT>
0

> <PUBCHEM_ISOTOPIC_ATOM_COUNT>
0

> <PUBCHEM_COMPONENT_COUNT>
1

> <PUBCHEM_CACTVS_TAUTO_COUNT>
15

> <PUBCHEM_CONFORMER_ID>
017C066C00000002

> <PUBCHEM_MMFF94_ENERGY>
47.6757

> <PUBCHEM_FEATURE_SELFOVERLAP>
56.101

> <PUBCHEM_SHAPE_FINGERPRINT>
10319926 262 18198604568347722210
10411042 1 18339366395702447647
10989021 7 18269558406654646349
1100329 8 18410578370999460465
11545043 162 18202282464554228114
12236239 1 17822581491041245764
12363563 72 18339361988892045647
12553582 1 18268996551770790423
12707595 3 18264204897376927911
12788726 201 18189351193513667362
12824470 246 17894345605120445915
13052359 8 18263642871141837245
13083527 12 17912902157425412189
13103583 49 17974889278027483251
13140716 1 18340773723415233473
13538477 17 18261394382378561676
13583140 156 17702930441163333806
14178342 30 18264202526586518570
14787075 74 17899700347581591324
15042514 8 18338527343791837465
15099037 37 18343300362185433078
15842332 3 17822301128429344766
16752209 62 18410003330190757431
16945 1 18340489941856461821
17357779 13 17916563428393732693
17492 89 18409456869123369710
1813 80 18129111180700307471
18222031 100 18200588232435375767
18927931 339 18343587321904303710
200 152 16805322201861506846
20905425 154 18198349639772966660
21041028 32 18267876149901367811
21065201 7 18270118998993041934
21304303 282 17758641531111065109
21452121 199 18195520613491889173
23184049 29 18411134783484883053
2334 1 18268429229846337285
23366157 5 18043532921934869165
23402539 116 18408886209697838254
23419403 2 17903596938975058388
23557571 272 18201441329109784308
23559900 14 18057326072878980422
23598288 3 18410864265227870095
2748010 2 18269826670460011477
312423 11 18262248806119049092
314173 85 18343020038297218587
474 4 17386590045441557276
5104073 3 18342454825380927002
6049 1 17632577132860280632
7097593 13 17755287986381626826
7471813 234 18338229487678017684
7615 1 17894634734119002084
77492 1 17822298925079460468
7970288 3 18266745855621892327
81228 2 18341616967155252377
84936 182 10883327316057822599
8863177 126 17536608657428910155
9709674 26 18057328279938412686

> <PUBCHEM_SHAPE_MULTIPOLES>
418.86
9.18
3.44
1.27
8.52
1.99
0.01
-6.46
0.49
-5.6
0.55
0.79
-0.72
-0.01

> <PUBCHEM_SHAPE_SELFOVERLAP>
906.69

> <PUBCHEM_SHAPE_VOLUME>
231.4

> <PUBCHEM_COORDINATE_TYPE>
2
5
10

$$$$
