44355300
  -OEChem-03202500163D

 72 78  0     1  0  0  0  0  0999 V2000
    4.0305   -0.3591   -0.6073 O   0  0  0  0  0  0  0  0  0  0  0  0
    2.7627    1.6831    2.0516 O   0  0  0  0  0  0  0  0  0  0  0  0
    5.2132    1.9319    0.8845 O   0  0  0  0  0  0  0  0  0  0  0  0
    6.5178   -1.3369   -1.4206 O   0  0  0  0  0  0  0  0  0  0  0  0
    8.8342   -0.2465   -0.2945 O   0  0  0  0  0  0  0  0  0  0  0  0
   -3.2307   -2.9379   -0.6024 O   0  0  0  0  0  0  0  0  0  0  0  0
   -4.5875    1.5003   -0.5881 O   0  0  0  0  0  0  0  0  0  0  0  0
    3.3881   -5.0369   -0.0849 O   0  0  0  0  0  0  0  0  0  0  0  0
   -0.2791    6.9404   -0.0433 O   0  0  0  0  0  0  0  0  0  0  0  0
   -6.3693   -2.9047    2.4205 O   0  0  0  0  0  0  0  0  0  0  0  0
   -8.0030    0.0960   -0.0648 O   0  0  0  0  0  0  0  0  0  0  0  0
    1.6545   -0.4721   -0.0975 N   0  0  0  0  0  0  0  0  0  0  0  0
    0.8403    2.1880   -0.0888 N   0  0  0  0  0  0  0  0  0  0  0  0
   -4.2780   -0.8325   -0.6314 N   0  0  0  0  0  0  0  0  0  0  0  0
   -5.5880   -1.2239   -0.7583 N   0  0  0  0  0  0  0  0  0  0  0  0
    2.9321    0.3212    0.0385 C   0  0  1  0  0  0  0  0  0  0  0  0
    3.3566    0.5299    1.4903 C   0  0  1  0  0  0  0  0  0  0  0  0
    4.8640    0.6387    1.3675 C   0  0  1  0  0  0  0  0  0  0  0  0
    5.1355   -0.4329    0.3190 C   0  0  2  0  0  0  0  0  0  0  0  0
    0.3457   -0.1498   -0.2034 C   0  0  0  0  0  0  0  0  0  0  0  0
   -0.6888   -1.1371   -0.3247 C   0  0  0  0  0  0  0  0  0  0  0  0
    1.5876   -1.8565   -0.1458 C   0  0  0  0  0  0  0  0  0  0  0  0
   -0.0641    1.1887   -0.1990 C   0  0  0  0  0  0  0  0  0  0  0  0
    0.2250   -2.2883   -0.2793 C   0  0  0  0  0  0  0  0  0  0  0  0
    6.4374   -0.2944   -0.4479 C   0  0  1  0  0  0  0  0  0  0  0  0
   -2.0523   -0.8793   -0.4371 C   0  0  0  0  0  0  0  0  0  0  0  0
   -1.4741    1.4286   -0.3163 C   0  0  0  0  0  0  0  0  0  0  0  0
   -2.4597    0.4522   -0.4327 C   0  0  0  0  0  0  0  0  0  0  0  0
   -1.3613    2.8936   -0.2621 C   0  0  0  0  0  0  0  0  0  0  0  0
    2.6496   -2.7714   -0.0800 C   0  0  0  0  0  0  0  0  0  0  0  0
    0.0097    3.2978   -0.1287 C   0  0  0  0  0  0  0  0  0  0  0  0
   -3.2318   -1.7236   -0.5662 C   0  0  0  0  0  0  0  0  0  0  0  0
    7.6467   -0.4109    0.4734 C   0  0  0  0  0  0  0  0  0  0  0  0
   -0.0065   -3.6837   -0.3427 C   0  0  0  0  0  0  0  0  0  0  0  0
   -3.9097    0.4923   -0.5591 C   0  0  0  0  0  0  0  0  0  0  0  0
    2.3666   -4.1361   -0.1469 C   0  0  0  0  0  0  0  0  0  0  0  0
    1.0597   -4.5872   -0.2765 C   0  0  0  0  0  0  0  0  0  0  0  0
   -2.3345    3.9206   -0.3172 C   0  0  0  0  0  0  0  0  0  0  0  0
    0.3775    4.6501   -0.0553 C   0  0  0  0  0  0  0  0  0  0  0  0
   -6.1959   -1.3822    0.5561 C   0  0  0  0  0  0  0  0  0  0  0  0
   -1.9570    5.2656   -0.2432 C   0  0  0  0  0  0  0  0  0  0  0  0
   -0.6212    5.6228   -0.1142 C   0  0  0  0  0  0  0  0  0  0  0  0
   -5.8296   -2.7580    1.1128 C   0  0  0  0  0  0  0  0  0  0  0  0
   -7.7130   -1.2003    0.4459 C   0  0  0  0  0  0  0  0  0  0  0  0
    2.8533    1.1927   -0.6022 H   0  0  0  0  0  0  0  0  0  0  0  0
    3.0883   -0.3384    2.1046 H   0  0  0  0  0  0  0  0  0  0  0  0
    5.3853    0.4759    2.3143 H   0  0  0  0  0  0  0  0  0  0  0  0
    5.1106   -1.4136    0.8051 H   0  0  0  0  0  0  0  0  0  0  0  0
    6.4775    0.6429   -1.0143 H   0  0  0  0  0  0  0  0  0  0  0  0
    1.8007    2.2338    0.1821 H   0  0  0  0  0  0  0  0  0  0  0  0
    3.6782   -2.4882    0.0227 H   0  0  0  0  0  0  0  0  0  0  0  0
    3.1602    1.8178    2.9286 H   0  0  0  0  0  0  0  0  0  0  0  0
    4.8195    2.0586    0.0055 H   0  0  0  0  0  0  0  0  0  0  0  0
    7.6388    0.3571    1.2520 H   0  0  0  0  0  0  0  0  0  0  0  0
    7.6897   -1.4009    0.9397 H   0  0  0  0  0  0  0  0  0  0  0  0
   -1.0138   -4.0746   -0.4436 H   0  0  0  0  0  0  0  0  0  0  0  0
    0.8535   -5.6536   -0.3276 H   0  0  0  0  0  0  0  0  0  0  0  0
    5.7274   -1.2714   -1.9834 H   0  0  0  0  0  0  0  0  0  0  0  0
   -3.3883    3.6813   -0.4175 H   0  0  0  0  0  0  0  0  0  0  0  0
    1.4231    4.9273    0.0459 H   0  0  0  0  0  0  0  0  0  0  0  0
   -6.0724   -0.4945   -1.2814 H   0  0  0  0  0  0  0  0  0  0  0  0
   -5.8455   -0.6002    1.2451 H   0  0  0  0  0  0  0  0  0  0  0  0
   -2.7250    6.0341   -0.2877 H   0  0  0  0  0  0  0  0  0  0  0  0
    9.5841   -0.3308    0.3189 H   0  0  0  0  0  0  0  0  0  0  0  0
    4.2303   -4.5589    0.0042 H   0  0  0  0  0  0  0  0  0  0  0  0
   -4.7533   -2.8838    1.2289 H   0  0  0  0  0  0  0  0  0  0  0  0
   -6.2184   -3.5655    0.4828 H   0  0  0  0  0  0  0  0  0  0  0  0
   -8.1559   -1.9444   -0.2257 H   0  0  0  0  0  0  0  0  0  0  0  0
   -8.1906   -1.2904    1.4269 H   0  0  0  0  0  0  0  0  0  0  0  0
    0.6870    7.0117    0.0444 H   0  0  0  0  0  0  0  0  0  0  0  0
   -6.1246   -3.7923    2.7334 H   0  0  0  0  0  0  0  0  0  0  0  0
   -8.9710    0.1712   -0.1181 H   0  0  0  0  0  0  0  0  0  0  0  0
  1 16  1  0  0  0  0
  1 19  1  0  0  0  0
  2 17  1  0  0  0  0
  2 52  1  0  0  0  0
  3 18  1  0  0  0  0
  3 53  1  0  0  0  0
  4 25  1  0  0  0  0
  4 58  1  0  0  0  0
  5 33  1  0  0  0  0
  5 64  1  0  0  0  0
  6 32  2  0  0  0  0
  7 35  2  0  0  0  0
  8 36  1  0  0  0  0
  8 65  1  0  0  0  0
  9 42  1  0  0  0  0
  9 70  1  0  0  0  0
 10 43  1  0  0  0  0
 10 71  1  0  0  0  0
 11 44  1  0  0  0  0
 11 72  1  0  0  0  0
 12 16  1  0  0  0  0
 12 20  1  0  0  0  0
 12 22  1  0  0  0  0
 13 23  1  0  0  0  0
 13 31  1  0  0  0  0
 13 50  1  0  0  0  0
 14 15  1  0  0  0  0
 14 32  1  0  0  0  0
 14 35  1  0  0  0  0
 15 40  1  0  0  0  0
 15 61  1  0  0  0  0
 16 17  1  0  0  0  0
 16 45  1  0  0  0  0
 17 18  1  0  0  0  0
 17 46  1  0  0  0  0
 18 19  1  0  0  0  0
 18 47  1  0  0  0  0
 19 25  1  0  0  0  0
 19 48  1  0  0  0  0
 20 21  1  0  0  0  0
 20 23  2  0  0  0  0
 21 24  1  0  0  0  0
 21 26  2  0  0  0  0
 22 24  2  0  0  0  0
 22 30  1  0  0  0  0
 23 27  1  0  0  0  0
 24 34  1  0  0  0  0
 25 33  1  0  0  0  0
 25 49  1  0  0  0  0
 26 28  1  0  0  0  0
 26 32  1  0  0  0  0
 27 28  2  0  0  0  0
 27 29  1  0  0  0  0
 28 35  1  0  0  0  0
 29 31  2  0  0  0  0
 29 38  1  0  0  0  0
 30 36  2  0  0  0  0
 30 51  1  0  0  0  0
 31 39  1  0  0  0  0
 33 54  1  0  0  0  0
 33 55  1  0  0  0  0
 34 37  2  0  0  0  0
 34 56  1  0  0  0  0
 36 37  1  0  0  0  0
 37 57  1  0  0  0  0
 38 41  2  0  0  0  0
 38 59  1  0  0  0  0
 39 42  2  0  0  0  0
 39 60  1  0  0  0  0
 40 43  1  0  0  0  0
 40 44  1  0  0  0  0
 40 62  1  0  0  0  0
 41 42  1  0  0  0  0
 41 63  1  0  0  0  0
 43 66  1  0  0  0  0
 43 67  1  0  0  0  0
 44 68  1  0  0  0  0
 44 69  1  0  0  0  0
M  END
> <PUBCHEM_COMPOUND_CID>
44355300

> <PUBCHEM_CONFORMER_RMSD>
1

> <PUBCHEM_CONFORMER_DIVERSEORDER>
1
4
6
3
5
2

> <PUBCHEM_MMFF94_PARTIAL_CHARGES>
58
1 -0.56
10 -0.68
11 -0.68
12 -0.04
13 -0.05
14 -0.11
15 -0.64
16 0.54
17 0.28
18 0.28
19 0.28
2 -0.68
20 -0.05
21 -0.01
22 -0.15
23 -0.05
25 0.28
26 0.09
27 -0.01
28 0.09
3 -0.68
30 -0.15
31 -0.15
32 0.54
33 0.28
34 -0.15
35 0.54
36 0.08
37 -0.15
38 -0.15
39 -0.15
4 -0.68
40 0.27
41 -0.15
42 0.08
43 0.28
44 0.28
5 -0.68
50 0.27
51 0.15
52 0.4
53 0.4
56 0.15
57 0.15
58 0.4
59 0.15
6 -0.57
60 0.15
61 0.36
63 0.15
64 0.4
65 0.45
7 -0.57
70 0.45
71 0.4
72 0.4
8 -0.53
9 -0.53

> <PUBCHEM_EFFECTIVE_ROTOR_COUNT>
8.2

> <PUBCHEM_PHARMACOPHORE_FEATURES>
28
1 1 acceptor
1 10 acceptor
1 10 donor
1 11 acceptor
1 11 donor
1 12 cation
1 13 cation
1 13 donor
1 15 donor
1 2 acceptor
1 2 donor
1 3 acceptor
1 3 donor
1 4 acceptor
1 4 donor
1 5 acceptor
1 5 donor
1 6 acceptor
1 7 acceptor
1 8 donor
1 9 donor
5 1 16 17 18 19 rings
5 12 20 21 22 24 rings
5 13 23 27 29 31 rings
5 14 26 28 32 35 rings
6 20 21 23 26 27 28 rings
6 22 24 30 34 36 37 rings
6 29 31 38 39 41 42 rings

> <PUBCHEM_HEAVY_ATOM_COUNT>
44

> <PUBCHEM_ATOM_DEF_STEREO_COUNT>
4

> <PUBCHEM_ATOM_UDEF_STEREO_COUNT>
1

> <PUBCHEM_BOND_DEF_STEREO_COUNT>
0

> <PUBCHEM_BOND_UDEF_STEREO_COUNT>
0

> <PUBCHEM_ISOTOPIC_ATOM_COUNT>
0

> <PUBCHEM_COMPONENT_COUNT>
1

> <PUBCHEM_CACTVS_TAUTO_COUNT>
209

> <PUBCHEM_CONFORMER_ID>
02A4CEE400000001

> <PUBCHEM_MMFF94_ENERGY>
165.6752

> <PUBCHEM_FEATURE_SELFOVERLAP>
142.619

> <PUBCHEM_SHAPE_FINGERPRINT>
10050765 1 18050285865250334238
10190108 129 18341344326673010499
102385 1 17906448827361244126
10411042 1 18338515343500608573
1100329 8 18122901199040009111
11135926 11 18411408519136684023
11227688 84 18269816684539508943
11445158 3 17824534408101457655
11963148 33 18334287703933573723
12058002 1 17532677670866087678
12788726 201 18261384508048282096
13140716 1 18050567649622971663
13617811 41 18408327696413978980
140371 6 18408045113219751733
14068700 686 18269834212301160198
14117953 113 18412823603760125543
14394314 77 18412546496970902215
14725015 67 18341606028279556112
14790565 3 18339077206774699308
14955137 171 18337111280073523265
15131766 46 15193005068615219616
15320467 1 18339636742587868372
15439362 3 17474102104378911708
16087824 20 18338797798595383365
16090146 7 17023198102291931946
16112460 7 18198914788543376329
18608769 82 18412824694555561942
19301679 30 18337104553949367043
19611394 137 18042976547977116867
21033648 29 17843667001198870442
21796203 349 18046376229334471201
21927370 108 18337686272972954713
22311459 1 18410572894894877126
24771293 8 17985251126529981520
24771750 20 17971478648681926917
2747138 104 18408603690743530864
3178227 256 18266188399410761819
350125 39 18340481171865357778
469060 322 18339092513869402777
5265222 85 18412543233238894832

> <PUBCHEM_SHAPE_MULTIPOLES>
821.01
16.55
7.67
1.06
2.97
9.5
0.52
-10.69
2.85
-2.55
-0.35
-0.11
-0.32
2.34

> <PUBCHEM_SHAPE_SELFOVERLAP>
1851.834

> <PUBCHEM_SHAPE_VOLUME>
430.5

> <PUBCHEM_COORDINATE_TYPE>
2
5
10

$$$$
