44274749
  -OEChem-03202506583D

 60 66  0     1  0  0  0  0  0999 V2000
    0.8672   -3.3949   -1.5852 O   0  0  0  0  0  0  0  0  0  0  0  0
   -3.2689   -3.5791    0.3701 O   0  0  0  0  0  0  0  0  0  0  0  0
    5.6107    0.0982    1.7477 N   0  0  2  0  0  0  0  0  0  0  0  0
    1.9293    0.9243   -1.0227 N   0  0  0  0  0  0  0  0  0  0  0  0
   -1.2016   -3.8826   -0.6463 N   0  0  0  0  0  0  0  0  0  0  0  0
   -4.3259    0.7584    0.6219 N   0  0  0  0  0  0  0  0  0  0  0  0
    3.4513   -0.2732    1.0052 C   0  0  2  0  0  0  0  0  0  0  0  0
    4.1638    0.5034   -0.0955 C   0  0  2  0  0  0  0  0  0  0  0  0
    4.6205   -0.9885    1.6518 C   0  0  0  0  0  0  0  0  0  0  0  0
    5.4209    1.0086    0.5996 C   0  0  0  0  0  0  0  0  0  0  0  0
    2.3430   -1.1243    0.3989 C   0  0  0  0  0  0  0  0  0  0  0  0
    3.2222    1.5324   -0.7019 C   0  0  0  0  0  0  0  0  0  0  0  0
    1.4930   -0.2835   -0.5111 C   0  0  0  0  0  0  0  0  0  0  0  0
    0.2279   -0.5069   -1.0113 C   0  0  0  0  0  0  0  0  0  0  0  0
    0.9607    1.4846   -1.8277 C   0  0  0  0  0  0  0  0  0  0  0  0
   -0.1201    0.5969   -1.8392 C   0  0  0  0  0  0  0  0  0  0  0  0
    6.9731   -0.3973    1.8637 C   0  0  0  0  0  0  0  0  0  0  0  0
   -0.5904   -1.6864   -0.7235 C   0  0  0  0  0  0  0  0  0  0  0  0
    0.9385    2.6922   -2.5421 C   0  0  0  0  0  0  0  0  0  0  0  0
   -1.2629    0.9224   -2.5975 C   0  0  0  0  0  0  0  0  0  0  0  0
   -1.8044   -1.7411   -0.1432 C   0  0  0  0  0  0  0  0  0  0  0  0
   -0.1802   -3.0747   -1.0494 C   0  0  0  0  0  0  0  0  0  0  0  0
   -0.2060    2.9936   -3.2857 C   0  0  0  0  0  0  0  0  0  0  0  0
   -1.2914    2.1226   -3.3152 C   0  0  0  0  0  0  0  0  0  0  0  0
   -2.6184   -0.6371    0.3692 C   0  0  0  0  0  0  0  0  0  0  0  0
   -2.2201   -3.1647   -0.0934 C   0  0  0  0  0  0  0  0  0  0  0  0
   -2.2853    0.2927    1.3937 C   0  0  0  0  0  0  0  0  0  0  0  0
   -3.8788   -0.3249   -0.0857 C   0  0  0  0  0  0  0  0  0  0  0  0
   -3.3734    1.1569    1.5325 C   0  0  0  0  0  0  0  0  0  0  0  0
   -1.1590    0.4824    2.2189 C   0  0  0  0  0  0  0  0  0  0  0  0
   -3.3916    2.2057    2.4589 C   0  0  0  0  0  0  0  0  0  0  0  0
   -5.6171    1.3823    0.4282 C   0  0  0  0  0  0  0  0  0  0  0  0
   -1.1631    1.5272    3.1501 C   0  0  0  0  0  0  0  0  0  0  0  0
   -2.2633    2.3744    3.2665 C   0  0  0  0  0  0  0  0  0  0  0  0
    3.0056    0.4266    1.7300 H   0  0  0  0  0  0  0  0  0  0  0  0
    4.4703   -0.1984   -0.8875 H   0  0  0  0  0  0  0  0  0  0  0  0
    4.3640   -1.3854    2.6388 H   0  0  0  0  0  0  0  0  0  0  0  0
    4.9758   -1.8113    1.0182 H   0  0  0  0  0  0  0  0  0  0  0  0
    1.7364   -1.5642    1.1982 H   0  0  0  0  0  0  0  0  0  0  0  0
    2.7711   -1.9511   -0.1803 H   0  0  0  0  0  0  0  0  0  0  0  0
    5.2933    2.0295    0.9753 H   0  0  0  0  0  0  0  0  0  0  0  0
    6.2655    1.0082   -0.0995 H   0  0  0  0  0  0  0  0  0  0  0  0
    3.6433    1.9424   -1.6255 H   0  0  0  0  0  0  0  0  0  0  0  0
    3.0121    2.3522   -0.0056 H   0  0  0  0  0  0  0  0  0  0  0  0
    7.6737    0.4356    1.9872 H   0  0  0  0  0  0  0  0  0  0  0  0
    7.2786   -0.9773    0.9855 H   0  0  0  0  0  0  0  0  0  0  0  0
    7.0751   -1.0341    2.7492 H   0  0  0  0  0  0  0  0  0  0  0  0
    1.7798    3.3772   -2.5242 H   0  0  0  0  0  0  0  0  0  0  0  0
   -2.1176    0.2538   -2.6413 H   0  0  0  0  0  0  0  0  0  0  0  0
   -0.2475    3.9222   -3.8492 H   0  0  0  0  0  0  0  0  0  0  0  0
   -2.1704    2.3757   -3.9019 H   0  0  0  0  0  0  0  0  0  0  0  0
   -1.2035   -4.8915   -0.7454 H   0  0  0  0  0  0  0  0  0  0  0  0
   -4.4907   -0.7825   -0.8525 H   0  0  0  0  0  0  0  0  0  0  0  0
   -0.2953   -0.1718    2.1511 H   0  0  0  0  0  0  0  0  0  0  0  0
   -4.2449    2.8687    2.5545 H   0  0  0  0  0  0  0  0  0  0  0  0
   -6.1723    1.3249    1.3679 H   0  0  0  0  0  0  0  0  0  0  0  0
   -5.4565    2.4228    0.1349 H   0  0  0  0  0  0  0  0  0  0  0  0
   -6.1652    0.8568   -0.3580 H   0  0  0  0  0  0  0  0  0  0  0  0
   -0.2977    1.6770    3.7902 H   0  0  0  0  0  0  0  0  0  0  0  0
   -2.2452    3.1794    3.9968 H   0  0  0  0  0  0  0  0  0  0  0  0
  1 22  2  0  0  0  0
  2 26  2  0  0  0  0
  3  9  1  0  0  0  0
  3 10  1  0  0  0  0
  3 17  1  0  0  0  0
  4 12  1  0  0  0  0
  4 13  1  0  0  0  0
  4 15  1  0  0  0  0
  5 22  1  0  0  0  0
  5 26  1  0  0  0  0
  5 52  1  0  0  0  0
  6 28  1  0  0  0  0
  6 29  1  0  0  0  0
  6 32  1  0  0  0  0
  7  8  1  0  0  0  0
  7  9  1  0  0  0  0
  7 11  1  0  0  0  0
  7 35  1  0  0  0  0
  8 10  1  0  0  0  0
  8 12  1  0  0  0  0
  8 36  1  0  0  0  0
  9 37  1  0  0  0  0
  9 38  1  0  0  0  0
 10 41  1  0  0  0  0
 10 42  1  0  0  0  0
 11 13  1  0  0  0  0
 11 39  1  0  0  0  0
 11 40  1  0  0  0  0
 12 43  1  0  0  0  0
 12 44  1  0  0  0  0
 13 14  2  0  0  0  0
 14 16  1  0  0  0  0
 14 18  1  0  0  0  0
 15 16  1  0  0  0  0
 15 19  2  0  0  0  0
 16 20  2  0  0  0  0
 17 45  1  0  0  0  0
 17 46  1  0  0  0  0
 17 47  1  0  0  0  0
 18 21  2  0  0  0  0
 18 22  1  0  0  0  0
 19 23  1  0  0  0  0
 19 48  1  0  0  0  0
 20 24  1  0  0  0  0
 20 49  1  0  0  0  0
 21 25  1  0  0  0  0
 21 26  1  0  0  0  0
 23 24  2  0  0  0  0
 23 50  1  0  0  0  0
 24 51  1  0  0  0  0
 25 27  1  0  0  0  0
 25 28  2  0  0  0  0
 27 29  1  0  0  0  0
 27 30  2  0  0  0  0
 28 53  1  0  0  0  0
 29 31  2  0  0  0  0
 30 33  1  0  0  0  0
 30 54  1  0  0  0  0
 31 34  1  0  0  0  0
 31 55  1  0  0  0  0
 32 56  1  0  0  0  0
 32 57  1  0  0  0  0
 32 58  1  0  0  0  0
 33 34  2  0  0  0  0
 33 59  1  0  0  0  0
 34 60  1  0  0  0  0
M  END
> <PUBCHEM_COMPOUND_CID>
44274749

> <PUBCHEM_CONFORMER_RMSD>
0.8

> <PUBCHEM_CONFORMER_DIVERSEORDER>
1
6
3
14
11
12
5
4
10
8
2
15
13
7
9

> <PUBCHEM_MMFF94_PARTIAL_CHARGES>
40
1 -0.57
10 0.27
11 0.18
12 0.26
13 -0.33
14 -0.05
15 -0.15
17 0.27
18 0.06
19 -0.15
2 -0.57
20 -0.15
21 0.06
22 0.62
23 -0.15
24 -0.15
25 -0.05
26 0.62
28 -0.3
29 -0.15
3 -0.81
30 -0.15
31 -0.15
32 0.26
33 -0.15
34 -0.15
4 0.05
48 0.15
49 0.15
5 -0.49
50 0.15
51 0.15
52 0.37
53 0.15
54 0.15
55 0.15
59 0.15
6 0.05
60 0.15
9 0.27

> <PUBCHEM_EFFECTIVE_ROTOR_COUNT>
3.2

> <PUBCHEM_PHARMACOPHORE_FEATURES>
13
1 1 acceptor
1 2 acceptor
1 3 cation
1 4 cation
1 5 donor
1 6 cation
5 3 7 8 9 10 rings
5 4 13 14 15 16 rings
5 5 18 21 22 26 rings
5 6 25 27 28 29 rings
6 15 16 19 20 23 24 rings
6 27 29 30 31 33 34 rings
6 4 7 8 11 12 13 rings

> <PUBCHEM_HEAVY_ATOM_COUNT>
34

> <PUBCHEM_ATOM_DEF_STEREO_COUNT>
2

> <PUBCHEM_ATOM_UDEF_STEREO_COUNT>
0

> <PUBCHEM_BOND_DEF_STEREO_COUNT>
0

> <PUBCHEM_BOND_UDEF_STEREO_COUNT>
0

> <PUBCHEM_ISOTOPIC_ATOM_COUNT>
0

> <PUBCHEM_COMPONENT_COUNT>
1

> <PUBCHEM_CACTVS_TAUTO_COUNT>
19

> <PUBCHEM_CONFORMER_ID>
02A3943D00000001

> <PUBCHEM_MMFF94_ENERGY>
82.6269

> <PUBCHEM_FEATURE_SELFOVERLAP>
66.324

> <PUBCHEM_SHAPE_FINGERPRINT>
10010297 198 17386866073993632868
10032420 55 17631149923770763097
11578080 2 17835770347385365525
11640471 11 17903957604912109205
11763715 3 17266089265546731206
12128747 34 17344932749483378078
12422481 6 18115028476683746036
12655364 131 17335875925976708026
12788726 201 17908443680656394707
13009979 54 17977953706511222214
13583140 156 16774082903695598614
13965767 371 18193006923599070664
13994607 96 17489582393987839968
14068700 675 18053085509306478255
14400156 147 14350075371349414082
14840074 17 18113911467802214132
14844126 61 17533185654096969656
14856354 85 17129014173857385718
15361156 5 17022899039360710580
17492 54 15840684298479876313
17974551 9 16082238322999511053
17980427 26 17414714272293841894
20642791 105 18339360894144870475
21033648 29 18268724813521648681
21133410 90 17984965232522391005
2132832 1 18120933073410991143
21756936 100 17489573568563023074
23419403 2 17122774435956935319
23559900 14 17845396408888977822
3493558 16 17773041847426811522
376196 1 16484738545575328624
392239 28 17988647462255875939
469060 322 17895461627177209186
513202 73 17533493440175555642
5171179 24 17690559684929795663
550186 7 17346331413920423640
57527295 17 15938343011226309707
57527306 92 17604138239171184989
57527358 35 17170956144221365647
5951187 136 15763607257582967313
9981440 41 18131358479330595395

> <PUBCHEM_SHAPE_MULTIPOLES>
668.04
9.84
3.77
3.51
13.08
1.51
-1.65
0.21
-8.62
-2.01
3.73
-1.83
-2.47
-1.95

> <PUBCHEM_SHAPE_SELFOVERLAP>
1523.058

> <PUBCHEM_SHAPE_VOLUME>
351.9

> <PUBCHEM_COORDINATE_TYPE>
2
5
10

$$$$
