5895068
  -OEChem-03202504263D

 51 55  0     0  0  0  0  0  0999 V2000
    3.1892    2.3484    0.6106 O   0  0  0  0  0  0  0  0  0  0  0  0
   -1.6701    0.7035    1.4136 O   0  0  0  0  0  0  0  0  0  0  0  0
   -8.9731   -0.8058    0.1833 O   0  0  0  0  0  0  0  0  0  0  0  0
   -8.3693   -1.0287    2.3633 O   0  0  0  0  0  0  0  0  0  0  0  0
    3.9589    0.2500    0.2354 N   0  0  0  0  0  0  0  0  0  0  0  0
   -2.9331    0.7620   -0.5776 N   0  0  0  0  0  0  0  0  0  0  0  0
   -2.5777    1.0639   -1.8680 N   0  0  0  0  0  0  0  0  0  0  0  0
    4.9498   -1.7324   -0.0501 N   0  0  0  0  0  0  0  0  0  0  0  0
    2.3505   -4.0059   -1.3578 N   0  0  0  0  0  0  0  0  0  0  0  0
    1.6310    0.7082   -0.2549 C   0  0  0  0  0  0  0  0  0  0  0  0
    3.8149   -1.0699   -0.1663 C   0  0  0  0  0  0  0  0  0  0  0  0
    1.4889   -0.6911   -0.6762 C   0  0  0  0  0  0  0  0  0  0  0  0
    5.2807    0.4111    0.6292 C   0  0  0  0  0  0  0  0  0  0  0  0
    2.9474    1.2131    0.2338 C   0  0  0  0  0  0  0  0  0  0  0  0
   -0.6856    1.3435   -0.6990 C   0  0  0  0  0  0  0  0  0  0  0  0
    2.5481   -1.5308   -0.6268 C   0  0  0  0  0  0  0  0  0  0  0  0
    0.6480    1.6248   -0.2661 C   0  0  0  0  0  0  0  0  0  0  0  0
    5.8632   -0.8387    0.4372 C   0  0  0  0  0  0  0  0  0  0  0  0
   -1.2558    1.4295   -1.9119 C   0  0  0  0  0  0  0  0  0  0  0  0
   -1.7926    0.9007    0.2154 C   0  0  0  0  0  0  0  0  0  0  0  0
    0.1201   -1.1269   -1.1567 C   0  0  0  0  0  0  0  0  0  0  0  0
    6.0144    1.4989    1.1244 C   0  0  0  0  0  0  0  0  0  0  0  0
   -4.1889    0.3892   -0.1429 C   0  0  0  0  0  0  0  0  0  0  0  0
    7.2219   -1.0330    0.7414 C   0  0  0  0  0  0  0  0  0  0  0  0
   -0.6538    1.8735   -3.1990 C   0  0  0  0  0  0  0  0  0  0  0  0
    7.3655    1.2903    1.4230 C   0  0  0  0  0  0  0  0  0  0  0  0
    7.9618    0.0452    1.2353 C   0  0  0  0  0  0  0  0  0  0  0  0
   -4.4198    0.1063    1.2111 C   0  0  0  0  0  0  0  0  0  0  0  0
   -5.2545    0.2871   -1.0488 C   0  0  0  0  0  0  0  0  0  0  0  0
    2.4390   -2.8966   -1.0302 C   0  0  0  0  0  0  0  0  0  0  0  0
   -5.6891   -0.2707    1.6499 C   0  0  0  0  0  0  0  0  0  0  0  0
   -6.5239   -0.0897   -0.6102 C   0  0  0  0  0  0  0  0  0  0  0  0
   -6.7411   -0.3686    0.7393 C   0  0  0  0  0  0  0  0  0  0  0  0
   -8.0648   -0.7606    1.1962 C   0  0  0  0  0  0  0  0  0  0  0  0
    0.8047    2.6407    0.0866 H   0  0  0  0  0  0  0  0  0  0  0  0
   -3.2416    1.4053   -2.5496 H   0  0  0  0  0  0  0  0  0  0  0  0
   -0.1469   -0.6864   -2.1150 H   0  0  0  0  0  0  0  0  0  0  0  0
   -0.6357   -1.1024   -0.3748 H   0  0  0  0  0  0  0  0  0  0  0  0
    0.1238   -2.1957   -1.4077 H   0  0  0  0  0  0  0  0  0  0  0  0
    5.5696    2.4754    1.2775 H   0  0  0  0  0  0  0  0  0  0  0  0
    7.6921   -2.0008    0.5977 H   0  0  0  0  0  0  0  0  0  0  0  0
   -0.7269    1.0797   -3.9493 H   0  0  0  0  0  0  0  0  0  0  0  0
    0.4037    2.1331   -3.0893 H   0  0  0  0  0  0  0  0  0  0  0  0
   -1.1770    2.7565   -3.5802 H   0  0  0  0  0  0  0  0  0  0  0  0
    7.9591    2.1156    1.8083 H   0  0  0  0  0  0  0  0  0  0  0  0
    9.0131   -0.0905    1.4749 H   0  0  0  0  0  0  0  0  0  0  0  0
   -3.6658    0.1585    1.9835 H   0  0  0  0  0  0  0  0  0  0  0  0
   -5.1246    0.4916   -2.1079 H   0  0  0  0  0  0  0  0  0  0  0  0
   -5.8395   -0.4834    2.7052 H   0  0  0  0  0  0  0  0  0  0  0  0
   -7.3143   -0.1546   -1.3527 H   0  0  0  0  0  0  0  0  0  0  0  0
   -9.8623   -1.0705    0.5021 H   0  0  0  0  0  0  0  0  0  0  0  0
  1 14  2  0  0  0  0
  2 20  2  0  0  0  0
  3 34  1  0  0  0  0
  3 51  1  0  0  0  0
  4 34  2  0  0  0  0
  5 11  1  0  0  0  0
  5 13  1  0  0  0  0
  5 14  1  0  0  0  0
  6  7  1  0  0  0  0
  6 20  1  0  0  0  0
  6 23  1  0  0  0  0
  7 19  1  0  0  0  0
  7 36  1  0  0  0  0
  8 11  2  0  0  0  0
  8 18  1  0  0  0  0
  9 30  3  0  0  0  0
 10 12  1  0  0  0  0
 10 14  1  0  0  0  0
 10 17  2  0  0  0  0
 11 16  1  0  0  0  0
 12 16  2  0  0  0  0
 12 21  1  0  0  0  0
 13 18  1  0  0  0  0
 13 22  2  0  0  0  0
 15 17  1  0  0  0  0
 15 19  2  0  0  0  0
 15 20  1  0  0  0  0
 16 30  1  0  0  0  0
 17 35  1  0  0  0  0
 18 24  2  0  0  0  0
 19 25  1  0  0  0  0
 21 37  1  0  0  0  0
 21 38  1  0  0  0  0
 21 39  1  0  0  0  0
 22 26  1  0  0  0  0
 22 40  1  0  0  0  0
 23 28  2  0  0  0  0
 23 29  1  0  0  0  0
 24 27  1  0  0  0  0
 24 41  1  0  0  0  0
 25 42  1  0  0  0  0
 25 43  1  0  0  0  0
 25 44  1  0  0  0  0
 26 27  2  0  0  0  0
 26 45  1  0  0  0  0
 27 46  1  0  0  0  0
 28 31  1  0  0  0  0
 28 47  1  0  0  0  0
 29 32  2  0  0  0  0
 29 48  1  0  0  0  0
 31 33  2  0  0  0  0
 31 49  1  0  0  0  0
 32 33  1  0  0  0  0
 32 50  1  0  0  0  0
 33 34  1  0  0  0  0
M  END
> <PUBCHEM_COMPOUND_CID>
5895068

> <PUBCHEM_CONFORMER_RMSD>
0.8

> <PUBCHEM_CONFORMER_DIVERSEORDER>
1
2

> <PUBCHEM_MMFF94_PARTIAL_CHARGES>
45
1 -0.57
10 0.01
11 0.14
12 -0.14
13 -0.15
14 0.56
15 0.01
16 0.11
17 -0.15
18 0.23
19 -0.04
2 -0.57
20 0.62
21 0.14
22 -0.15
23 0.12
24 -0.15
25 0.14
26 -0.15
27 -0.15
28 -0.15
29 -0.15
3 -0.65
30 0.49
31 -0.15
32 -0.15
33 0.09
34 0.63
35 0.15
36 0.4
4 -0.57
40 0.15
41 0.15
45 0.15
46 0.15
47 0.15
48 0.15
49 0.15
5 0.29
50 0.15
51 0.5
6 -0.16
7 -0.52
8 -0.57
9 -0.56

> <PUBCHEM_EFFECTIVE_ROTOR_COUNT>
3

> <PUBCHEM_PHARMACOPHORE_FEATURES>
12
1 1 acceptor
1 2 acceptor
1 3 acceptor
1 4 acceptor
1 7 donor
1 9 acceptor
3 3 4 34 anion
5 5 8 11 13 18 rings
5 6 7 15 19 20 rings
6 13 18 22 24 26 27 rings
6 23 28 29 31 32 33 rings
6 5 10 11 12 14 16 rings

> <PUBCHEM_HEAVY_ATOM_COUNT>
34

> <PUBCHEM_ATOM_DEF_STEREO_COUNT>
0

> <PUBCHEM_ATOM_UDEF_STEREO_COUNT>
0

> <PUBCHEM_BOND_DEF_STEREO_COUNT>
1

> <PUBCHEM_BOND_UDEF_STEREO_COUNT>
0

> <PUBCHEM_ISOTOPIC_ATOM_COUNT>
0

> <PUBCHEM_COMPONENT_COUNT>
1

> <PUBCHEM_CACTVS_TAUTO_COUNT>
6

> <PUBCHEM_CONFORMER_ID>
0059F39C00000001

> <PUBCHEM_MMFF94_ENERGY>
125.0121

> <PUBCHEM_FEATURE_SELFOVERLAP>
61.17

> <PUBCHEM_SHAPE_FINGERPRINT>
10 15 18260542347425803312
10162869 55 18130498726262745319
10258939 38 18188205407923971016
10369192 42 14117800202687195041
106641 1 18411134758152695608
10670039 82 13262388965598133239
11421498 54 17203326651168723498
11607047 141 15983723055548916542
11828532 37 16660940979258444777
12202916 173 17676207978996630179
12236239 1 16988558000552453148
12664476 115 11312059838406754467
12741549 16 18333445439530104077
13383668 1 17895180091702555419
13540713 4 18121213182424318380
13673619 4 18040714770574704661
13782708 43 17969782973833707590
13811026 1 17603581946168587589
14028597 1 17203333286228525090
14068700 675 15574431011871672892
14294032 229 14764342709622478993
14849402 71 17631443622287981144
15188451 53 16081084870782051350
15510800 12 17968110711337549491
1577012 14 15410891842984847773
16992610 120 15051738633589334408
18335252 114 10665227072584941163
19303781 99 17314798606332533707
19315958 150 18201442446265829687
20105231 36 18342743980113279006
2026 5 17676487251087836363
20505436 4 16415474952623098374
20554085 129 13110966418020760821
21267235 1 18271523105843936596
21521721 280 18059848502787055680
21623969 137 18411697664998064806
21781051 124 18334305262634656894
22149856 69 18341344287902435457
22224240 67 18201716271515175146
22956985 138 17827632553377111858
23576562 1 8430013366050572155
2747138 104 18408611344069036864
3004659 81 14707208842236156933
3178227 256 18343300388256014632
3383291 50 17676493869605760387
4093350 32 16343708707913376846
4340502 62 18131354119811513415
4461854 278 18341896315970898678
474113 269 8934739781827318888
5104073 3 18195528095103197688
5758199 1 17775282785636670986
58260988 521 18335416851483440734
59682541 35 18335135419108087560
6009941 240 18188767242003884869
6126387 218 18411698765390764449
6523845 18 18412271610811680022
86090 222 18261971656217487043
9689198 14 14548735127243881098
9962374 69 18189614011795424791

> <PUBCHEM_SHAPE_MULTIPOLES>
651.32
23.59
2.32
1.9
20.13
1.49
-0.63
5.85
15.92
-2.71
-1.25
1.62
-0.39
2.91

> <PUBCHEM_SHAPE_SELFOVERLAP>
1471.975

> <PUBCHEM_SHAPE_VOLUME>
340.8

> <PUBCHEM_COORDINATE_TYPE>
2
5
10

$$$$
