22671105
  -OEChem-03192523223D

 72 78  0     1  0  0  0  0  0999 V2000
    4.0272   -0.6970    0.6549 O   0  0  0  0  0  0  0  0  0  0  0  0
    3.5560   -0.9378   -2.1613 O   0  0  0  0  0  0  0  0  0  0  0  0
    5.2068    1.1666   -2.8664 O   0  0  0  0  0  0  0  0  0  0  0  0
    7.0065    1.0689   -0.6052 O   0  0  0  0  0  0  0  0  0  0  0  0
    5.7015   -1.1296    2.7891 O   0  0  0  0  0  0  0  0  0  0  0  0
   -3.2993   -2.7840    0.5821 O   0  0  0  0  0  0  0  0  0  0  0  0
   -4.3735    1.7308    0.5809 O   0  0  0  0  0  0  0  0  0  0  0  0
    3.1745   -5.2946    0.0691 O   0  0  0  0  0  0  0  0  0  0  0  0
    0.2717    6.8903    0.0690 O   0  0  0  0  0  0  0  0  0  0  0  0
   -6.4213   -2.5140   -2.4724 O   0  0  0  0  0  0  0  0  0  0  0  0
   -7.9171    0.4489    0.1414 O   0  0  0  0  0  0  0  0  0  0  0  0
    1.7334   -0.6297    0.0988 N   0  0  0  0  0  0  0  0  0  0  0  0
    1.0887    2.0766    0.0985 N   0  0  0  0  0  0  0  0  0  0  0  0
   -4.2117   -0.6166    0.6152 N   0  0  0  0  0  0  0  0  0  0  0  0
   -5.5440   -0.9250    0.7381 N   0  0  0  0  0  0  0  0  0  0  0  0
    3.0221    0.0625   -0.0271 C   0  0  2  0  0  0  0  0  0  0  0  0
    3.4255    0.3155   -1.4855 C   0  0  1  0  0  0  0  0  0  0  0  0
    0.4470   -0.2257    0.2022 C   0  0  0  0  0  0  0  0  0  0  0  0
    4.7712    1.0427   -1.5156 C   0  0  1  0  0  0  0  0  0  0  0  0
    5.8181    0.2863   -0.6912 C   0  0  2  0  0  0  0  0  0  0  0  0
   -0.6481   -1.1464    0.3164 C   0  0  0  0  0  0  0  0  0  0  0  0
    5.2846   -0.0158    0.7173 C   0  0  2  0  0  0  0  0  0  0  0  0
    1.5788   -2.0072    0.1406 C   0  0  0  0  0  0  0  0  0  0  0  0
    0.1227    1.1360    0.2020 C   0  0  0  0  0  0  0  0  0  0  0  0
    0.1912   -2.3526    0.2683 C   0  0  0  0  0  0  0  0  0  0  0  0
   -1.9930   -0.8032    0.4261 C   0  0  0  0  0  0  0  0  0  0  0  0
   -1.2699    1.4640    0.3160 C   0  0  0  0  0  0  0  0  0  0  0  0
   -2.3155    0.5514    0.4260 C   0  0  0  0  0  0  0  0  0  0  0  0
   -1.0647    2.9191    0.2676 C   0  0  0  0  0  0  0  0  0  0  0  0
    6.2471   -0.9003    1.5027 C   0  0  0  0  0  0  0  0  0  0  0  0
    0.3296    3.2365    0.1398 C   0  0  0  0  0  0  0  0  0  0  0  0
   -3.2236   -1.5718    0.5493 C   0  0  0  0  0  0  0  0  0  0  0  0
    2.5810   -2.9871    0.0736 C   0  0  0  0  0  0  0  0  0  0  0  0
   -3.7603    0.6825    0.5490 C   0  0  0  0  0  0  0  0  0  0  0  0
   -0.1282   -3.7309    0.3242 C   0  0  0  0  0  0  0  0  0  0  0  0
    2.2121   -4.3315    0.1332 C   0  0  0  0  0  0  0  0  0  0  0  0
    0.8788   -4.6997    0.2565 C   0  0  0  0  0  0  0  0  0  0  0  0
   -1.9712    4.0052    0.3233 C   0  0  0  0  0  0  0  0  0  0  0  0
    0.7822    4.5630    0.0725 C   0  0  0  0  0  0  0  0  0  0  0  0
   -6.1577   -1.0378   -0.5784 C   0  0  0  0  0  0  0  0  0  0  0  0
   -1.5092    5.3241    0.2553 C   0  0  0  0  0  0  0  0  0  0  0  0
   -0.1532    5.5966    0.1319 C   0  0  0  0  0  0  0  0  0  0  0  0
   -5.8316   -2.4077   -1.1816 C   0  0  0  0  0  0  0  0  0  0  0  0
   -7.6652   -0.8216   -0.4461 C   0  0  0  0  0  0  0  0  0  0  0  0
    2.9911    0.9410    0.6080 H   0  0  0  0  0  0  0  0  0  0  0  0
    2.6672    0.8862   -2.0309 H   0  0  0  0  0  0  0  0  0  0  0  0
    4.6583    2.0603   -1.1212 H   0  0  0  0  0  0  0  0  0  0  0  0
    6.0966   -0.6400   -1.2064 H   0  0  0  0  0  0  0  0  0  0  0  0
    5.1456    0.9139    1.2857 H   0  0  0  0  0  0  0  0  0  0  0  0
    6.3683   -1.8729    1.0141 H   0  0  0  0  0  0  0  0  0  0  0  0
    7.2271   -0.4269    1.6153 H   0  0  0  0  0  0  0  0  0  0  0  0
    2.0515    2.0716   -0.1657 H   0  0  0  0  0  0  0  0  0  0  0  0
    3.6305   -2.7553   -0.0497 H   0  0  0  0  0  0  0  0  0  0  0  0
   -1.1586   -4.0579    0.4202 H   0  0  0  0  0  0  0  0  0  0  0  0
    4.2178   -1.4754   -1.6979 H   0  0  0  0  0  0  0  0  0  0  0  0
    4.5183    1.6511   -3.3531 H   0  0  0  0  0  0  0  0  0  0  0  0
    6.7883    1.8935   -0.1382 H   0  0  0  0  0  0  0  0  0  0  0  0
    0.6053   -5.7512    0.3016 H   0  0  0  0  0  0  0  0  0  0  0  0
   -3.0383    3.8326    0.4195 H   0  0  0  0  0  0  0  0  0  0  0  0
    1.8437    4.7741   -0.0239 H   0  0  0  0  0  0  0  0  0  0  0  0
   -5.9832   -0.1700    1.2649 H   0  0  0  0  0  0  0  0  0  0  0  0
   -5.7922   -0.2450   -1.2468 H   0  0  0  0  0  0  0  0  0  0  0  0
    6.3268   -1.6991    3.2689 H   0  0  0  0  0  0  0  0  0  0  0  0
   -2.2274    6.1394    0.3005 H   0  0  0  0  0  0  0  0  0  0  0  0
    4.0456   -4.8698   -0.0128 H   0  0  0  0  0  0  0  0  0  0  0  0
   -6.2114   -3.2241   -0.5576 H   0  0  0  0  0  0  0  0  0  0  0  0
   -4.7606   -2.5433   -1.3364 H   0  0  0  0  0  0  0  0  0  0  0  0
   -8.1519   -0.8424   -1.4267 H   0  0  0  0  0  0  0  0  0  0  0  0
   -8.1244   -1.5909    0.1851 H   0  0  0  0  0  0  0  0  0  0  0  0
    1.2406    6.9009   -0.0152 H   0  0  0  0  0  0  0  0  0  0  0  0
   -6.2001   -3.3963   -2.8160 H   0  0  0  0  0  0  0  0  0  0  0  0
   -8.8825    0.5467    0.2064 H   0  0  0  0  0  0  0  0  0  0  0  0
  1 16  1  0  0  0  0
  1 22  1  0  0  0  0
  2 17  1  0  0  0  0
  2 55  1  0  0  0  0
  3 19  1  0  0  0  0
  3 56  1  0  0  0  0
  4 20  1  0  0  0  0
  4 57  1  0  0  0  0
  5 30  1  0  0  0  0
  5 63  1  0  0  0  0
  6 32  2  0  0  0  0
  7 34  2  0  0  0  0
  8 36  1  0  0  0  0
  8 65  1  0  0  0  0
  9 42  1  0  0  0  0
  9 70  1  0  0  0  0
 10 43  1  0  0  0  0
 10 71  1  0  0  0  0
 11 44  1  0  0  0  0
 11 72  1  0  0  0  0
 12 16  1  0  0  0  0
 12 18  1  0  0  0  0
 12 23  1  0  0  0  0
 13 24  1  0  0  0  0
 13 31  1  0  0  0  0
 13 52  1  0  0  0  0
 14 15  1  0  0  0  0
 14 32  1  0  0  0  0
 14 34  1  0  0  0  0
 15 40  1  0  0  0  0
 15 61  1  0  0  0  0
 16 17  1  0  0  0  0
 16 45  1  0  0  0  0
 17 19  1  0  0  0  0
 17 46  1  0  0  0  0
 18 21  1  0  0  0  0
 18 24  2  0  0  0  0
 19 20  1  0  0  0  0
 19 47  1  0  0  0  0
 20 22  1  0  0  0  0
 20 48  1  0  0  0  0
 21 25  1  0  0  0  0
 21 26  2  0  0  0  0
 22 30  1  0  0  0  0
 22 49  1  0  0  0  0
 23 25  2  0  0  0  0
 23 33  1  0  0  0  0
 24 27  1  0  0  0  0
 25 35  1  0  0  0  0
 26 28  1  0  0  0  0
 26 32  1  0  0  0  0
 27 28  2  0  0  0  0
 27 29  1  0  0  0  0
 28 34  1  0  0  0  0
 29 31  2  0  0  0  0
 29 38  1  0  0  0  0
 30 50  1  0  0  0  0
 30 51  1  0  0  0  0
 31 39  1  0  0  0  0
 33 36  2  0  0  0  0
 33 53  1  0  0  0  0
 35 37  2  0  0  0  0
 35 54  1  0  0  0  0
 36 37  1  0  0  0  0
 37 58  1  0  0  0  0
 38 41  2  0  0  0  0
 38 59  1  0  0  0  0
 39 42  2  0  0  0  0
 39 60  1  0  0  0  0
 40 43  1  0  0  0  0
 40 44  1  0  0  0  0
 40 62  1  0  0  0  0
 41 42  1  0  0  0  0
 41 64  1  0  0  0  0
 43 66  1  0  0  0  0
 43 67  1  0  0  0  0
 44 68  1  0  0  0  0
 44 69  1  0  0  0  0
M  END
> <PUBCHEM_COMPOUND_CID>
22671105

> <PUBCHEM_CONFORMER_RMSD>
1

> <PUBCHEM_CONFORMER_DIVERSEORDER>
1
24
20
22
17
26
28
23
21
11
19
16
25
13
14
6
10
7
27
2
18
9
8
12
15
4
5
3

> <PUBCHEM_MMFF94_PARTIAL_CHARGES>
58
1 -0.56
10 -0.68
11 -0.68
12 -0.04
13 -0.05
14 -0.11
15 -0.64
16 0.54
17 0.28
18 -0.05
19 0.28
2 -0.68
20 0.28
21 -0.01
22 0.28
23 -0.15
24 -0.05
26 0.09
27 -0.01
28 0.09
3 -0.68
30 0.28
31 -0.15
32 0.54
33 -0.15
34 0.54
35 -0.15
36 0.08
37 -0.15
38 -0.15
39 -0.15
4 -0.68
40 0.27
41 -0.15
42 0.08
43 0.28
44 0.28
5 -0.68
52 0.27
53 0.15
54 0.15
55 0.4
56 0.4
57 0.4
58 0.15
59 0.15
6 -0.57
60 0.15
61 0.36
63 0.4
64 0.15
65 0.45
7 -0.57
70 0.45
71 0.4
72 0.4
8 -0.53
9 -0.53

> <PUBCHEM_EFFECTIVE_ROTOR_COUNT>
7.4

> <PUBCHEM_PHARMACOPHORE_FEATURES>
28
1 1 acceptor
1 10 acceptor
1 10 donor
1 11 acceptor
1 11 donor
1 12 cation
1 13 cation
1 13 donor
1 15 donor
1 2 acceptor
1 2 donor
1 3 acceptor
1 3 donor
1 4 acceptor
1 4 donor
1 5 acceptor
1 5 donor
1 6 acceptor
1 7 acceptor
1 8 donor
1 9 donor
5 12 18 21 23 25 rings
5 13 24 27 29 31 rings
5 14 26 28 32 34 rings
6 1 16 17 19 20 22 rings
6 18 21 24 26 27 28 rings
6 23 25 33 35 36 37 rings
6 29 31 38 39 41 42 rings

> <PUBCHEM_HEAVY_ATOM_COUNT>
44

> <PUBCHEM_ATOM_DEF_STEREO_COUNT>
0

> <PUBCHEM_ATOM_UDEF_STEREO_COUNT>
5

> <PUBCHEM_BOND_DEF_STEREO_COUNT>
0

> <PUBCHEM_BOND_UDEF_STEREO_COUNT>
0

> <PUBCHEM_ISOTOPIC_ATOM_COUNT>
0

> <PUBCHEM_COMPONENT_COUNT>
1

> <PUBCHEM_CACTVS_TAUTO_COUNT>
128

> <PUBCHEM_CONFORMER_ID>
0159EF0100000001

> <PUBCHEM_MMFF94_ENERGY>
162.2984

> <PUBCHEM_FEATURE_SELFOVERLAP>
142.615

> <PUBCHEM_SHAPE_FINGERPRINT>
10050765 1 18050568435264201434
102385 1 17906454324882297442
10930396 42 18197754774634637000
1100329 8 18194688291695123418
11513181 2 18198070178861598719
11621639 179 18115855315020917077
12058002 1 17243613860521106546
12788726 201 18263381281979862036
13140716 1 18339365265672439976
13617811 41 18410572894256242320
13782708 43 17273722891753234830
13911987 19 18189916351116617796
14068700 675 18201998872016183609
14068700 686 18270396067169536290
14394314 77 18411140276631776552
14725015 67 18341610430563610008
14790565 3 18337687402691920728
15200665 1 17762340215450187273
15320467 1 18410299124957613624
15439362 3 17979073018207582689
15950262 2 15358268228346783095
18681886 176 18268705177084028915
20028762 73 18273213139971079518
21133410 127 17608668115804586692
21133410 171 17323186544228341283
21133410 90 18263625390240503820
21796203 349 17830213351119957624
21814621 53 15841285748071096658
22311459 1 18410577318837617227
23558518 356 17901114014180783530
23559900 14 18266455602458892369
24771293 8 18201999983843105176
24771750 20 17899995012582586933
3178227 256 18265630929962185083
3380486 145 18265346014722165929
3534868 343 18335148535658719334
4093350 32 14057264403475451937
4353968 344 18269559343496062038
469060 322 18339939125001224632
6004065 56 18338512062251076531
6086070 43 18192148407230030315
9961470 85 17761485890610050224

> <PUBCHEM_SHAPE_MULTIPOLES>
821.01
15.01
7.64
1.4
10.43
8.57
0.61
-7.57
3.01
-0.01
-0.58
-1.69
-0.41
-2.49

> <PUBCHEM_SHAPE_SELFOVERLAP>
1852.778

> <PUBCHEM_SHAPE_VOLUME>
428.7

> <PUBCHEM_COORDINATE_TYPE>
2
5
10

$$$$
