11495680
  -OEChem-03202504383D

 51 54  0     1  0  0  0  0  0999 V2000
    6.3084   -3.1121   -1.2424 Cl  0  0  0  0  0  0  0  0  0  0  0  0
    3.8562   -1.6361   -1.9771 F   0  0  0  0  0  0  0  0  0  0  0  0
   -5.8999   -1.1840    0.8107 O   0  0  0  0  0  0  0  0  0  0  0  0
   -3.5722    2.3004   -0.4415 O   0  0  0  0  0  0  0  0  0  0  0  0
   -3.1330   -1.1235    0.1349 N   0  0  1  0  0  0  0  0  0  0  0  0
   -6.1104   -1.7848   -1.4003 N   0  0  0  0  0  0  0  0  0  0  0  0
    0.8359    3.9302    0.3141 N   0  0  0  0  0  0  0  0  0  0  0  0
    2.4671    0.2011   -0.4358 N   0  0  0  0  0  0  0  0  0  0  0  0
    2.7427    2.4691    0.1263 N   0  0  0  0  0  0  0  0  0  0  0  0
   -4.0334   -2.2099   -0.2658 C   0  0  1  0  0  0  0  0  0  0  0  0
   -3.8274   -3.3180    0.7669 C   0  0  0  0  0  0  0  0  0  0  0  0
   -2.0467   -1.7421    0.8950 C   0  0  0  0  0  0  0  0  0  0  0  0
   -2.7919   -2.7620    1.7334 C   0  0  0  0  0  0  0  0  0  0  0  0
   -2.6408   -0.3427   -0.9922 C   0  0  0  0  0  0  0  0  0  0  0  0
   -5.4256   -1.6685   -0.2138 C   0  0  0  0  0  0  0  0  0  0  0  0
   -1.7260    0.7914   -0.6461 C   0  0  0  0  0  0  0  0  0  0  0  0
   -2.2324    2.0574   -0.3875 C   0  0  0  0  0  0  0  0  0  0  0  0
   -0.3567    0.5672   -0.5849 C   0  0  0  0  0  0  0  0  0  0  0  0
    0.5112    1.6245   -0.2610 C   0  0  0  0  0  0  0  0  0  0  0  0
   -1.3628    3.1038   -0.0661 C   0  0  0  0  0  0  0  0  0  0  0  0
    0.0149    2.9115    0.0034 C   0  0  0  0  0  0  0  0  0  0  0  0
    1.8926    1.4716   -0.1819 C   0  0  0  0  0  0  0  0  0  0  0  0
   -4.3117    2.1232    0.7648 C   0  0  0  0  0  0  0  0  0  0  0  0
    2.1549    3.6536    0.3591 C   0  0  0  0  0  0  0  0  0  0  0  0
    3.6257   -0.4278    0.0467 C   0  0  0  0  0  0  0  0  0  0  0  0
    4.3119   -1.3520   -0.7473 C   0  0  0  0  0  0  0  0  0  0  0  0
    4.1016   -0.1331    1.3280 C   0  0  0  0  0  0  0  0  0  0  0  0
    5.4626   -1.9751   -0.2647 C   0  0  0  0  0  0  0  0  0  0  0  0
    5.2523   -0.7562    1.8107 C   0  0  0  0  0  0  0  0  0  0  0  0
    5.9329   -1.6772    1.0143 C   0  0  0  0  0  0  0  0  0  0  0  0
   -3.7915   -2.6051   -1.2605 H   0  0  0  0  0  0  0  0  0  0  0  0
   -3.4162   -4.2071    0.2728 H   0  0  0  0  0  0  0  0  0  0  0  0
   -4.7384   -3.6211    1.2933 H   0  0  0  0  0  0  0  0  0  0  0  0
   -1.5189   -1.0313    1.5381 H   0  0  0  0  0  0  0  0  0  0  0  0
   -1.3249   -2.2541    0.2460 H   0  0  0  0  0  0  0  0  0  0  0  0
   -3.2928   -2.2728    2.5781 H   0  0  0  0  0  0  0  0  0  0  0  0
   -2.1346   -3.5413    2.1301 H   0  0  0  0  0  0  0  0  0  0  0  0
   -3.4934    0.0560   -1.5582 H   0  0  0  0  0  0  0  0  0  0  0  0
   -2.1254   -0.9960   -1.7119 H   0  0  0  0  0  0  0  0  0  0  0  0
    0.0217   -0.4302   -0.7914 H   0  0  0  0  0  0  0  0  0  0  0  0
   -7.0668   -1.4561   -1.4824 H   0  0  0  0  0  0  0  0  0  0  0  0
   -5.6993   -2.1925   -2.2338 H   0  0  0  0  0  0  0  0  0  0  0  0
   -1.7749    4.0919    0.1336 H   0  0  0  0  0  0  0  0  0  0  0  0
    2.0864   -0.2473   -1.2648 H   0  0  0  0  0  0  0  0  0  0  0  0
   -3.9464    1.2766    1.3537 H   0  0  0  0  0  0  0  0  0  0  0  0
   -5.3582    1.9447    0.5032 H   0  0  0  0  0  0  0  0  0  0  0  0
   -4.2510    3.0365    1.3644 H   0  0  0  0  0  0  0  0  0  0  0  0
    2.8109    4.4782    0.6102 H   0  0  0  0  0  0  0  0  0  0  0  0
    3.5825    0.5700    1.9742 H   0  0  0  0  0  0  0  0  0  0  0  0
    5.6167   -0.5269    2.8078 H   0  0  0  0  0  0  0  0  0  0  0  0
    6.8279   -2.1554    1.4041 H   0  0  0  0  0  0  0  0  0  0  0  0
  1 28  1  0  0  0  0
  2 26  1  0  0  0  0
  3 15  2  0  0  0  0
  4 17  1  0  0  0  0
  4 23  1  0  0  0  0
  5 10  1  0  0  0  0
  5 12  1  0  0  0  0
  5 14  1  0  0  0  0
  6 15  1  0  0  0  0
  6 41  1  0  0  0  0
  6 42  1  0  0  0  0
  7 21  1  0  0  0  0
  7 24  2  0  0  0  0
  8 22  1  0  0  0  0
  8 25  1  0  0  0  0
  8 44  1  0  0  0  0
  9 22  2  0  0  0  0
  9 24  1  0  0  0  0
 10 11  1  0  0  0  0
 10 15  1  0  0  0  0
 10 31  1  0  0  0  0
 11 13  1  0  0  0  0
 11 32  1  0  0  0  0
 11 33  1  0  0  0  0
 12 13  1  0  0  0  0
 12 34  1  0  0  0  0
 12 35  1  0  0  0  0
 13 36  1  0  0  0  0
 13 37  1  0  0  0  0
 14 16  1  0  0  0  0
 14 38  1  0  0  0  0
 14 39  1  0  0  0  0
 16 17  1  0  0  0  0
 16 18  2  0  0  0  0
 17 20  2  0  0  0  0
 18 19  1  0  0  0  0
 18 40  1  0  0  0  0
 19 21  2  0  0  0  0
 19 22  1  0  0  0  0
 20 21  1  0  0  0  0
 20 43  1  0  0  0  0
 23 45  1  0  0  0  0
 23 46  1  0  0  0  0
 23 47  1  0  0  0  0
 24 48  1  0  0  0  0
 25 26  2  0  0  0  0
 25 27  1  0  0  0  0
 26 28  1  0  0  0  0
 27 29  2  0  0  0  0
 27 49  1  0  0  0  0
 28 30  2  0  0  0  0
 29 30  1  0  0  0  0
 29 50  1  0  0  0  0
 30 51  1  0  0  0  0
M  END
> <PUBCHEM_COMPOUND_CID>
11495680

> <PUBCHEM_CONFORMER_RMSD>
0.8

> <PUBCHEM_CONFORMER_DIVERSEORDER>
1
210
335
252
221
45
108
131
282
344
334
274
276
96
329
98
348
15
238
258
293
351
265
317
172
150
266
260
37
78
288
246
207
149
240
322
146
107
72
281
270
137
140
273
122
279
50
347
120
113
272
93
222
250
349
193
319
338
12
192
175
262
253
263
230
345
247
28
90
62
188
88
333
224
331
248
163
180
190
116
309
95
226
187
99
316
286
61
30
283
327
133
196
148
212
201
125
267
300
311
114
153
16
155
119
229
343
304
144
336
275
65
257
7
298
255
264
218
342
228
268
280
104
314
165
123
112
58
181
176
52
84
308
241
129
74
184
91
162
29
56
138
164
242
284
209
324
27
303
66
301
219
179
315
202
111
294
290
103
236
92
305
63
3
128
33
237
249
46
337
204
159
312
35
245
215
157
191
154
124
194
68
352
186
216
177
152
53
235
341
42
132
213
105
231
14
139
43
217
83
69
199
40
307
183
325
55
54
100
168
318
57
185
225
97
134
79
4
306
127
121
77
295
36
26
23
321
86
6
313
89
227
243
142
332
169
244
173
167
151
200
31
5
166
182
287
130
195
339
310
214
38
320
13
178
161
239
47
19
340
81
158
59
326
261
170
22
115
102
87
251
110
291
256
206
220
211
223
147
118
20
67
64
75
106
254
346
136
269
205
143
24
10
9
198
82
278
233
135
299
34
145
296
271
277
8
160
141
259
323
203
44
76
17
285
156
70
292
350
197
18
85
330
94
73
39
48
49
21
302
232
32
71
174
41
171
297
189
25
60
2
11
101
328
80
234
208
51
117
289
109
126

> <PUBCHEM_MMFF94_PARTIAL_CHARGES>
36
1 -0.18
10 0.33
12 0.27
14 0.41
15 0.57
16 -0.14
17 0.08
18 -0.15
2 -0.19
20 -0.15
21 0.31
22 0.41
23 0.28
24 0.47
25 0.1
26 0.19
27 -0.15
28 0.18
29 -0.15
3 -0.57
30 -0.15
4 -0.36
40 0.15
41 0.37
42 0.37
43 0.15
44 0.4
48 0.15
49 0.15
5 -0.81
50 0.15
51 0.15
6 -0.8
7 -0.62
8 -0.6
9 -0.62

> <PUBCHEM_EFFECTIVE_ROTOR_COUNT>
7

> <PUBCHEM_PHARMACOPHORE_FEATURES>
11
1 3 acceptor
1 4 acceptor
1 5 cation
1 6 donor
1 8 donor
3 7 9 24 cation
3 8 9 22 cation
5 5 10 11 12 13 rings
6 16 17 18 19 20 21 rings
6 25 26 27 28 29 30 rings
6 7 9 19 21 22 24 rings

> <PUBCHEM_HEAVY_ATOM_COUNT>
30

> <PUBCHEM_ATOM_DEF_STEREO_COUNT>
1

> <PUBCHEM_ATOM_UDEF_STEREO_COUNT>
0

> <PUBCHEM_BOND_DEF_STEREO_COUNT>
0

> <PUBCHEM_BOND_UDEF_STEREO_COUNT>
0

> <PUBCHEM_ISOTOPIC_ATOM_COUNT>
0

> <PUBCHEM_COMPONENT_COUNT>
1

> <PUBCHEM_CACTVS_TAUTO_COUNT>
6

> <PUBCHEM_CONFORMER_ID>
00AF690000000001

> <PUBCHEM_MMFF94_ENERGY>
103.8955

> <PUBCHEM_FEATURE_SELFOVERLAP>
55.994

> <PUBCHEM_SHAPE_FINGERPRINT>
1100329 8 18337391543859413881
11135926 11 17977654635090462372
117089 54 18340496573539739894
11828532 37 17969506094472497915
12107183 9 18342470222896822169
12422481 6 17917717902707627879
12760667 363 18409445899618321679
13140716 1 18412542111092524400
13533116 47 18266739263315344113
1361 87 17968108567579526866
140371 6 18126853698840432140
14725015 67 18335410279687793971
14866123 147 18337112259695156793
15042514 8 18339080393650962965
15361156 5 18201716194559341596
15420108 30 17838345082318165353
15927050 60 17978222760953533645
17138139 8 17749105583075764106
17492 89 18340768242545976437
17627616 140 17825943715879140259
17909252 39 18338524165743197496
19315092 285 16412925331219055623
19611394 137 18410564103660773202
20403669 9 18409166627632935558
20567600 70 18334566980413211312
21033648 29 17631712912341973122
21279426 13 18261380179575666525
21703447 108 18265323079106051792
22440779 20 16766816098266639406
22889206 1 17484508293765339681
23559900 14 18115864277609555157
3004659 81 17967814959736461878
3383291 50 18410010988718573411
3421961 26 18267583687855293816
4073 2 18268708321575037258
437815 12 18410290324316273663
50009960 94 17755271777022740314
508706 21 18335709303653345786
5104073 3 18343576352526402104
5486654 36 18334018285013341641
563151 74 16915919929174168224
613672 6 18267283414149620102
9709674 26 18337106881879403573
9896288 288 17979364062466206257

> <PUBCHEM_SHAPE_MULTIPOLES>
575.34
14.58
4.94
1.32
6.43
2.46
0.12
-15.72
-0.19
-1.27
0.41
0.84
-0.93
1.44

> <PUBCHEM_SHAPE_SELFOVERLAP>
1248.778

> <PUBCHEM_SHAPE_VOLUME>
316

> <PUBCHEM_COORDINATE_TYPE>
2
5
10

$$$$
