6914611
  -OEChem-03202505593D

 52 56  0     1  0  0  0  0  0999 V2000
   -2.6490    1.3774    0.8853 O   0  0  0  0  0  0  0  0  0  0  0  0
   -2.6425   -2.7957    1.4474 N   0  0  0  0  0  0  0  0  0  0  0  0
   -6.1868    1.2338   -0.2406 N   0  0  0  0  0  0  0  0  0  0  0  0
   -0.5373    4.1564   -0.1628 N   0  0  0  0  0  0  0  0  0  0  0  0
    6.2087   -1.3994    0.3309 N   0  0  0  0  0  0  0  0  0  0  0  0
   -4.4758   -0.4549   -0.6721 C   0  0  0  0  0  0  0  0  0  0  0  0
   -4.9211    0.6875    0.2619 C   0  0  1  0  0  0  0  0  0  0  0  0
   -3.5368   -1.4316   -0.0217 C   0  0  0  0  0  0  0  0  0  0  0  0
   -2.3586   -1.9457   -0.5956 C   0  0  0  0  0  0  0  0  0  0  0  0
   -3.9049    1.8317    0.3765 C   0  0  0  0  0  0  0  0  0  0  0  0
   -1.8069   -2.8090    0.3534 C   0  0  0  0  0  0  0  0  0  0  0  0
   -3.7005   -1.9562    1.2234 C   0  0  0  0  0  0  0  0  0  0  0  0
   -1.6917   -1.7740   -1.8249 C   0  0  0  0  0  0  0  0  0  0  0  0
   -0.6171   -3.5121    0.1336 C   0  0  0  0  0  0  0  0  0  0  0  0
   -0.5007   -2.4708   -2.0588 C   0  0  0  0  0  0  0  0  0  0  0  0
    0.0266   -3.3259   -1.0931 C   0  0  0  0  0  0  0  0  0  0  0  0
   -1.5415    2.0618    0.5069 C   0  0  0  0  0  0  0  0  0  0  0  0
    0.8066    2.1573    0.0079 C   0  0  0  0  0  0  0  0  0  0  0  0
    2.1030    1.5259   -0.1149 C   0  0  0  0  0  0  0  0  0  0  0  0
   -0.3091    1.4274    0.3970 C   0  0  0  0  0  0  0  0  0  0  0  0
    3.6803   -0.1876    0.5867 C   0  0  0  0  0  0  0  0  0  0  0  0
    2.4259    0.4351    0.6942 C   0  0  0  0  0  0  0  0  0  0  0  0
    4.6119    0.3036   -0.3511 C   0  0  0  0  0  0  0  0  0  0  0  0
    3.0259    2.0080   -1.0401 C   0  0  0  0  0  0  0  0  0  0  0  0
   -1.6020    3.4156    0.2184 C   0  0  0  0  0  0  0  0  0  0  0  0
    4.2761    1.4016   -1.1604 C   0  0  0  0  0  0  0  0  0  0  0  0
    0.6438    3.5056   -0.2586 C   0  0  0  0  0  0  0  0  0  0  0  0
    4.0339   -1.2827    1.3833 C   0  0  0  0  0  0  0  0  0  0  0  0
    5.8481   -0.3410   -0.4294 C   0  0  0  0  0  0  0  0  0  0  0  0
    5.2916   -1.8423    1.2172 C   0  0  0  0  0  0  0  0  0  0  0  0
   -4.0356   -0.0366   -1.5855 H   0  0  0  0  0  0  0  0  0  0  0  0
   -5.3501   -1.0389   -0.9933 H   0  0  0  0  0  0  0  0  0  0  0  0
   -5.1130    0.3010    1.2690 H   0  0  0  0  0  0  0  0  0  0  0  0
   -4.2901    2.6021    1.0567 H   0  0  0  0  0  0  0  0  0  0  0  0
   -3.7838    2.2757   -0.6218 H   0  0  0  0  0  0  0  0  0  0  0  0
   -4.4633   -1.8301    1.9788 H   0  0  0  0  0  0  0  0  0  0  0  0
   -2.4962   -3.3302    2.2927 H   0  0  0  0  0  0  0  0  0  0  0  0
   -2.0865   -1.1113   -2.5895 H   0  0  0  0  0  0  0  0  0  0  0  0
   -6.5197    1.9632    0.3890 H   0  0  0  0  0  0  0  0  0  0  0  0
   -6.9005    0.5060   -0.2367 H   0  0  0  0  0  0  0  0  0  0  0  0
   -0.2052   -4.1773    0.8850 H   0  0  0  0  0  0  0  0  0  0  0  0
    0.0188   -2.3412   -3.0046 H   0  0  0  0  0  0  0  0  0  0  0  0
    0.9539   -3.8560   -1.2952 H   0  0  0  0  0  0  0  0  0  0  0  0
   -0.2646    0.3605    0.5976 H   0  0  0  0  0  0  0  0  0  0  0  0
    1.7314    0.0597    1.4433 H   0  0  0  0  0  0  0  0  0  0  0  0
    2.8049    2.8362   -1.7080 H   0  0  0  0  0  0  0  0  0  0  0  0
   -2.5161    3.9936    0.3034 H   0  0  0  0  0  0  0  0  0  0  0  0
    4.9831    1.7864   -1.8919 H   0  0  0  0  0  0  0  0  0  0  0  0
    1.4649    4.1569   -0.5405 H   0  0  0  0  0  0  0  0  0  0  0  0
    3.3495   -1.6958    2.1180 H   0  0  0  0  0  0  0  0  0  0  0  0
    6.6110   -0.0132   -1.1304 H   0  0  0  0  0  0  0  0  0  0  0  0
    5.6023   -2.6923    1.8159 H   0  0  0  0  0  0  0  0  0  0  0  0
  1 10  1  0  0  0  0
  1 17  1  0  0  0  0
  2 11  1  0  0  0  0
  2 12  1  0  0  0  0
  2 37  1  0  0  0  0
  3  7  1  0  0  0  0
  3 39  1  0  0  0  0
  3 40  1  0  0  0  0
  4 25  1  0  0  0  0
  4 27  2  0  0  0  0
  5 29  2  0  0  0  0
  5 30  1  0  0  0  0
  6  7  1  0  0  0  0
  6  8  1  0  0  0  0
  6 31  1  0  0  0  0
  6 32  1  0  0  0  0
  7 10  1  0  0  0  0
  7 33  1  0  0  0  0
  8  9  1  0  0  0  0
  8 12  2  0  0  0  0
  9 11  1  0  0  0  0
  9 13  2  0  0  0  0
 10 34  1  0  0  0  0
 10 35  1  0  0  0  0
 11 14  2  0  0  0  0
 12 36  1  0  0  0  0
 13 15  1  0  0  0  0
 13 38  1  0  0  0  0
 14 16  1  0  0  0  0
 14 41  1  0  0  0  0
 15 16  2  0  0  0  0
 15 42  1  0  0  0  0
 16 43  1  0  0  0  0
 17 20  1  0  0  0  0
 17 25  2  0  0  0  0
 18 19  1  0  0  0  0
 18 20  2  0  0  0  0
 18 27  1  0  0  0  0
 19 22  2  0  0  0  0
 19 24  1  0  0  0  0
 20 44  1  0  0  0  0
 21 22  1  0  0  0  0
 21 23  2  0  0  0  0
 21 28  1  0  0  0  0
 22 45  1  0  0  0  0
 23 26  1  0  0  0  0
 23 29  1  0  0  0  0
 24 26  2  0  0  0  0
 24 46  1  0  0  0  0
 25 47  1  0  0  0  0
 26 48  1  0  0  0  0
 27 49  1  0  0  0  0
 28 30  2  0  0  0  0
 28 50  1  0  0  0  0
 29 51  1  0  0  0  0
 30 52  1  0  0  0  0
M  END
> <PUBCHEM_COMPOUND_CID>
6914611

> <PUBCHEM_CONFORMER_RMSD>
1

> <PUBCHEM_CONFORMER_DIVERSEORDER>
2
282
145
84
353
329
354
142
183
401
270
392
8
61
379
179
154
149
198
376
400
268
153
402
271
180
337
129
75
259
279
380
43
49
24
245
206
297
361
214
341
396
119
47
204
304
66
332
355
79
89
265
175
93
160
368
121
330
56
383
366
164
322
102
310
69
327
388
7
168
139
188
348
9
201
335
76
364
246
193
107
325
28
224
406
87
199
82
97
178
78
399
58
308
339
287
356
171
74
276
190
291
37
104
88
140
90
33
391
278
159
127
117
288
72
36
22
38
408
370
387
4
124
235
231
315
404
244
62
251
25
331
211
260
169
21
319
326
44
234
293
3
283
173
257
307
397
15
336
170
344
53
239
162
409
123
94
205
42
68
299
300
347
371
311
407
369
285
223
85
292
137
165
52
13
133
166
20
86
375
317
131
359
373
71
174
243
389
210
273
321
65
365
113
280
360
217
212
177
334
249
222
103
219
98
134
29
395
296
357
346
275
226
394
314
1
228
405
247
77
143
114
191
324
281
167
26
286
186
156
55
241
17
116
298
67
40
261
96
233
232
136
328
312
34
385
349
269
10
202
252
384
59
73
345
295
320
187
390
253
120
362
207
274
35
343
184
372
242
83
161
54
39
5
374
81
46
358
238
11
101
91
338
152
45
16
301
208
323
150
277
367
272
30
305
227
148
64
377
51
220
229
122
50
403
141
155
132
192
393
284
289
185
254
218
105
18
80
266
267
290
130
14
176
23
57
128
60
125
248
381
158
316
264
112
135
258
181
352
146
172
263
221
63
32
340
309
250
197
256
100
236
200
342
92
6
351
111
194
382
110
195
126
333
27
240
189
255
115
209
318
196
294
157
48
144
398
303
215
147
41
31
237
230
19
70
225
163
99
302
262
118
203
108
182
306
12
109
106
138
313
363
386
95
216
350
378
213
151

> <PUBCHEM_MMFF94_PARTIAL_CHARGES>
42
1 -0.36
10 0.28
11 -0.15
12 -0.3
13 -0.15
14 -0.15
15 -0.15
16 -0.15
17 0.08
2 0.03
20 -0.15
22 -0.15
24 -0.15
25 0.16
26 -0.15
27 0.16
28 -0.15
29 0.16
3 -0.99
30 0.16
36 0.15
37 0.27
38 0.15
39 0.36
4 -0.62
40 0.36
41 0.15
42 0.15
43 0.15
44 0.15
45 0.15
46 0.15
47 0.15
48 0.15
49 0.15
5 -0.62
50 0.15
51 0.15
52 0.15
6 0.18
7 0.27
8 -0.18

> <PUBCHEM_EFFECTIVE_ROTOR_COUNT>
6

> <PUBCHEM_PHARMACOPHORE_FEATURES>
12
1 1 acceptor
1 2 cation
1 2 donor
1 3 cation
1 3 donor
1 4 acceptor
1 5 acceptor
5 2 8 9 11 12 rings
6 19 21 22 23 24 26 rings
6 4 17 18 20 25 27 rings
6 5 21 23 28 29 30 rings
6 9 11 13 14 15 16 rings

> <PUBCHEM_HEAVY_ATOM_COUNT>
30

> <PUBCHEM_ATOM_DEF_STEREO_COUNT>
1

> <PUBCHEM_ATOM_UDEF_STEREO_COUNT>
0

> <PUBCHEM_BOND_DEF_STEREO_COUNT>
0

> <PUBCHEM_BOND_UDEF_STEREO_COUNT>
0

> <PUBCHEM_ISOTOPIC_ATOM_COUNT>
0

> <PUBCHEM_COMPONENT_COUNT>
1

> <PUBCHEM_CACTVS_TAUTO_COUNT>
1

> <PUBCHEM_CONFORMER_ID>
0069823300000002

> <PUBCHEM_MMFF94_ENERGY>
84.836

> <PUBCHEM_FEATURE_SELFOVERLAP>
61.017

> <PUBCHEM_SHAPE_FINGERPRINT>
10939801 23 18339640144496963256
12422481 6 18127720178247917779
12522641 33 17687739446696515261
12553582 1 18196369436695145278
12633046 712 18043244841577681767
12788726 201 18341339950433748724
12838863 1 18270949198891523079
13402501 40 18272091552284884655
13726171 33 17909869678692496380
14117953 113 18339361838599761269
14251757 5 18334012804413441004
14279260 333 18040996220773265714
14394314 77 18411699889396323417
14647877 51 17766846026658680110
14725015 67 18340203094329104275
15001296 14 18260546749408514016
15274700 242 18114164325813025210
15403338 16 17823123554316058067
15439362 3 17038937344297014716
15721738 202 15867189348747825923
15927050 60 17621601606024277453
16112460 7 18202294623105815313
19319366 153 17966968327145342586
20764821 26 18269297719013862719
20775438 99 16618382376299227703
21344244 246 18270955753501818087
21796203 349 18048918235667299208
22113638 7 18341887549862714111
23559900 14 18339637953146511312
238918 7 17988926613586714238
24893992 56 18410853279724835015
3052486 1 18339939147018957518
3298306 158 18339918217669885973
3383291 50 18339917221106072195
338550 245 18338238163712571198
373842 8 18193837046531518354
44880168 125 17560261213672551758
463206 1 18261397762523352128
5085150 59 18196075673574511497
508706 21 18270414771504483158
6138700 20 18412823569500587511

> <PUBCHEM_SHAPE_MULTIPOLES>
591.59
11.87
4.98
1.34
7.6
0.95
-0.28
-2.02
1.53
-2.34
-0.32
0.17
-0.95
-1.23

> <PUBCHEM_SHAPE_SELFOVERLAP>
1324.05

> <PUBCHEM_SHAPE_VOLUME>
313.1

> <PUBCHEM_COORDINATE_TYPE>
2
5
10

$$$$
