16095343
  -OEChem-03202500433D

 43 46  0     1  0  0  0  0  0999 V2000
    2.3530   -0.2781    2.4113 O   0  0  0  0  0  0  0  0  0  0  0  0
   -4.5390    2.1248    0.5012 O   0  0  0  0  0  0  0  0  0  0  0  0
    2.9845    0.5116    0.3209 N   0  0  0  0  0  0  0  0  0  0  0  0
    4.1423    1.8656   -2.8568 N   0  0  0  0  0  0  0  0  0  0  0  0
   -0.7630   -0.0128    0.4370 N   0  0  0  0  0  0  0  0  0  0  0  0
   -2.0407   -1.5928   -0.4648 N   0  0  0  0  0  0  0  0  0  0  0  0
    1.0791   -3.5813   -0.2781 N   0  0  0  0  0  0  0  0  0  0  0  0
   -3.3367    1.5121    0.8596 N   0  0  0  0  0  0  0  0  0  0  0  0
   -5.0966    1.5215   -0.6277 N   0  0  0  0  0  0  0  0  0  0  0  0
   -4.3481   -0.3143   -1.9808 N   0  0  0  0  0  0  0  0  0  0  0  0
    4.2249    1.2874   -1.5274 C   0  0  1  0  0  0  0  0  0  0  0  0
    4.2753    2.3399   -0.4188 C   0  0  0  0  0  0  0  0  0  0  0  0
    2.9969    0.4635   -1.1420 C   0  0  0  0  0  0  0  0  0  0  0  0
    3.9006    1.5311    0.8154 C   0  0  0  0  0  0  0  0  0  0  0  0
    2.2821   -0.3144    1.1844 C   0  0  0  0  0  0  0  0  0  0  0  0
    1.3911   -1.3220    0.5877 C   0  0  0  0  0  0  0  0  0  0  0  0
    0.0532   -1.1043    0.2888 C   0  0  0  0  0  0  0  0  0  0  0  0
   -0.7672   -2.0760   -0.2754 C   0  0  0  0  0  0  0  0  0  0  0  0
   -2.0032   -0.3539   -0.0271 C   0  0  0  0  0  0  0  0  0  0  0  0
   -0.3895    1.2738    0.9821 C   0  0  0  0  0  0  0  0  0  0  0  0
    1.8341   -2.5983    0.2717 C   0  0  0  0  0  0  0  0  0  0  0  0
   -0.2244   -3.3301   -0.5560 C   0  0  0  0  0  0  0  0  0  0  0  0
   -3.1734    0.5489   -0.0457 C   0  0  0  0  0  0  0  0  0  0  0  0
   -0.5980    1.3438    2.4851 C   0  0  0  0  0  0  0  0  0  0  0  0
   -4.2374    0.5544   -0.9447 C   0  0  0  0  0  0  0  0  0  0  0  0
    5.1206    0.6559   -1.4611 H   0  0  0  0  0  0  0  0  0  0  0  0
    3.5245    3.1220   -0.5910 H   0  0  0  0  0  0  0  0  0  0  0  0
    5.2536    2.8204   -0.3243 H   0  0  0  0  0  0  0  0  0  0  0  0
    2.0620    0.9170   -1.4917 H   0  0  0  0  0  0  0  0  0  0  0  0
    3.0500   -0.5656   -1.5080 H   0  0  0  0  0  0  0  0  0  0  0  0
    4.7705    1.0206    1.2431 H   0  0  0  0  0  0  0  0  0  0  0  0
    3.4243    2.1320    1.5959 H   0  0  0  0  0  0  0  0  0  0  0  0
    4.1061    1.1227   -3.5533 H   0  0  0  0  0  0  0  0  0  0  0  0
    4.9845    2.4055   -3.0504 H   0  0  0  0  0  0  0  0  0  0  0  0
    0.6444    1.4932    0.7225 H   0  0  0  0  0  0  0  0  0  0  0  0
   -0.9578    2.0561    0.4699 H   0  0  0  0  0  0  0  0  0  0  0  0
    2.8654   -2.8862    0.4603 H   0  0  0  0  0  0  0  0  0  0  0  0
   -0.7920   -4.1413   -0.9944 H   0  0  0  0  0  0  0  0  0  0  0  0
   -1.6374    1.1643    2.7722 H   0  0  0  0  0  0  0  0  0  0  0  0
   -0.3106    2.3318    2.8584 H   0  0  0  0  0  0  0  0  0  0  0  0
    0.0058    0.5977    3.0095 H   0  0  0  0  0  0  0  0  0  0  0  0
   -3.6598   -1.0346   -2.1775 H   0  0  0  0  0  0  0  0  0  0  0  0
   -5.1355   -0.2860   -2.6211 H   0  0  0  0  0  0  0  0  0  0  0  0
  1 15  2  0  0  0  0
  2  8  1  0  0  0  0
  2  9  1  0  0  0  0
  3 13  1  0  0  0  0
  3 14  1  0  0  0  0
  3 15  1  0  0  0  0
  4 11  1  0  0  0  0
  4 33  1  0  0  0  0
  4 34  1  0  0  0  0
  5 17  1  0  0  0  0
  5 19  1  0  0  0  0
  5 20  1  0  0  0  0
  6 18  1  0  0  0  0
  6 19  2  0  0  0  0
  7 21  1  0  0  0  0
  7 22  2  0  0  0  0
  8 23  2  0  0  0  0
  9 25  2  0  0  0  0
 10 25  1  0  0  0  0
 10 42  1  0  0  0  0
 10 43  1  0  0  0  0
 11 12  1  0  0  0  0
 11 13  1  0  0  0  0
 11 26  1  0  0  0  0
 12 14  1  0  0  0  0
 12 27  1  0  0  0  0
 12 28  1  0  0  0  0
 13 29  1  0  0  0  0
 13 30  1  0  0  0  0
 14 31  1  0  0  0  0
 14 32  1  0  0  0  0
 15 16  1  0  0  0  0
 16 17  1  0  0  0  0
 16 21  2  0  0  0  0
 17 18  2  0  0  0  0
 18 22  1  0  0  0  0
 19 23  1  0  0  0  0
 20 24  1  0  0  0  0
 20 35  1  0  0  0  0
 20 36  1  0  0  0  0
 21 37  1  0  0  0  0
 22 38  1  0  0  0  0
 23 25  1  0  0  0  0
 24 39  1  0  0  0  0
 24 40  1  0  0  0  0
 24 41  1  0  0  0  0
M  END
> <PUBCHEM_COMPOUND_CID>
16095343

> <PUBCHEM_CONFORMER_RMSD>
0.8

> <PUBCHEM_CONFORMER_DIVERSEORDER>
1
27
34
16
14
12
31
22
30
9
18
33
32
10
23
29
8
15
11
24
5
17
3
26
28
4
25
20
13
2
19
6
21
7

> <PUBCHEM_MMFF94_PARTIAL_CHARGES>
29
1 -0.57
10 -0.88
11 0.27
13 0.3
14 0.3
15 0.54
16 0.09
17 -0.15
18 0.23
19 0.19
2 0.24
20 0.26
21 0.16
22 0.16
23 0.29
25 0.37
3 -0.66
33 0.36
34 0.36
37 0.15
38 0.15
4 -0.99
42 0.4
43 0.4
5 0.05
6 -0.57
7 -0.62
8 -0.41
9 -0.41

> <PUBCHEM_EFFECTIVE_ROTOR_COUNT>
5

> <PUBCHEM_PHARMACOPHORE_FEATURES>
12
1 1 acceptor
1 10 donor
1 4 cation
1 4 donor
1 7 acceptor
1 8 acceptor
3 5 6 19 cation
3 9 10 25 cation
5 2 8 9 23 25 rings
5 3 11 12 13 14 rings
5 5 6 17 18 19 rings
6 7 16 17 18 21 22 rings

> <PUBCHEM_HEAVY_ATOM_COUNT>
25

> <PUBCHEM_ATOM_DEF_STEREO_COUNT>
1

> <PUBCHEM_ATOM_UDEF_STEREO_COUNT>
0

> <PUBCHEM_BOND_DEF_STEREO_COUNT>
0

> <PUBCHEM_BOND_UDEF_STEREO_COUNT>
0

> <PUBCHEM_ISOTOPIC_ATOM_COUNT>
0

> <PUBCHEM_COMPONENT_COUNT>
1

> <PUBCHEM_CACTVS_TAUTO_COUNT>
2

> <PUBCHEM_CONFORMER_ID>
00F5986F00000001

> <PUBCHEM_MMFF94_ENERGY>
48.8185

> <PUBCHEM_FEATURE_SELFOVERLAP>
61.011

> <PUBCHEM_SHAPE_FINGERPRINT>
10498660 4 18341896328649500312
11578080 2 16663500538953169312
11640471 11 17968937625537789388
11796584 16 12463570699195770517
12035759 4 18058460802362773056
12173636 292 18267019651428303150
12293681 160 17988926686611500096
12633257 1 13912885414439973172
12788726 201 17900530486971384923
13140716 1 18127955443730006379
13583140 156 16589132841237179619
13828863 39 14636584002344001460
13965767 371 18114728400662592908
14251764 38 17314775314007333309
15163728 17 18189354466388977974
15342168 16 18334575707691889245
15475509 35 11958864131787595629
15475509 8 15984834692787585017
16752209 62 18196646508987895322
17134986 127 18410296913012286038
1813 80 17753032914182982258
19784866 34 18413106164957470697
20567600 9 18267032665015660204
21475661 188 16153968176224377053
21756936 100 16735537423587548804
22149856 69 18343023260482429683
2255824 54 18195524783879247043
23366157 5 18192707839547324139
23557571 272 17770790318949692680
23559900 14 18196364828021748059
2748010 2 17118299535222623003
394222 165 18260821583981060226
474 4 18336259038345240523
484985 159 12819129541136259300
6034566 193 17970366998706328309
6287921 2 18191586346139296989
7970288 3 9799700298250827924

> <PUBCHEM_SHAPE_MULTIPOLES>
462.9
8.99
3.26
1.9
3.45
2.81
-0.1
-8.32
-4.54
-0.66
-0.32
-1.33
-1.02
-1.48

> <PUBCHEM_SHAPE_SELFOVERLAP>
1014.748

> <PUBCHEM_SHAPE_VOLUME>
251.7

> <PUBCHEM_COORDINATE_TYPE>
2
5
10

$$$$
