9892366
  -OEChem-03202505463D

 63 68  0     1  0  0  0  0  0999 V2000
    2.3284   -0.0652   -1.1346 O   0  0  0  0  0  0  0  0  0  0  0  0
   -3.9566    2.0659    1.6669 O   0  0  0  0  0  0  0  0  0  0  0  0
   -4.3347   -2.2694    0.2382 O   0  0  0  0  0  0  0  0  0  0  0  0
    0.8059    2.2004    0.6226 N   0  0  0  0  0  0  0  0  0  0  0  0
    0.2299   -2.0036   -1.7188 N   0  0  0  0  0  0  0  0  0  0  0  0
    4.9535    0.1952    1.4543 N   0  0  0  0  0  0  0  0  0  0  0  0
   -4.5130   -0.1173    1.0945 N   0  0  0  0  0  0  0  0  0  0  0  0
    3.4562    0.4713   -0.4350 C   0  0  1  0  0  0  0  0  0  0  0  0
    3.2028    1.9603   -0.1242 C   0  0  0  0  0  0  0  0  0  0  0  0
    2.2063    2.2859    0.9976 C   0  0  0  0  0  0  0  0  0  0  0  0
   -1.2857    1.4509    0.4923 C   0  0  0  0  0  0  0  0  0  0  0  0
    0.0945    3.1733   -0.0530 C   0  0  0  0  0  0  0  0  0  0  0  0
   -1.2282    2.7224   -0.1519 C   0  0  0  0  0  0  0  0  0  0  0  0
   -2.4030    0.5761    0.5928 C   0  0  0  0  0  0  0  0  0  0  0  0
    3.7789   -0.3399    0.8189 C   0  0  0  0  0  0  0  0  0  0  0  0
   -1.5150   -1.5075   -0.4373 C   0  0  0  0  0  0  0  0  0  0  0  0
   -0.0254    1.1705    0.9772 C   0  0  0  0  0  0  0  0  0  0  0  0
   -2.5037   -0.7071    0.1976 C   0  0  0  0  0  0  0  0  0  0  0  0
    1.3789   -1.7632   -2.5790 C   0  0  0  0  0  0  0  0  0  0  0  0
   -1.0875   -2.8312   -0.1153 C   0  0  0  0  0  0  0  0  0  0  0  0
    0.0020   -3.1243   -0.9491 C   0  0  0  0  0  0  0  0  0  0  0  0
    2.6007   -1.3156   -1.7789 C   0  0  0  0  0  0  0  0  0  0  0  0
   -0.7340   -1.0627   -1.4816 C   0  0  0  0  0  0  0  0  0  0  0  0
   -3.7004    0.9748    1.1871 C   0  0  0  0  0  0  0  0  0  0  0  0
    0.5009    4.4060   -0.5899 C   0  0  0  0  0  0  0  0  0  0  0  0
   -3.8782   -1.1699    0.5011 C   0  0  0  0  0  0  0  0  0  0  0  0
   -2.1680    3.5276   -0.8328 C   0  0  0  0  0  0  0  0  0  0  0  0
   -1.4851   -3.7985    0.8343 C   0  0  0  0  0  0  0  0  0  0  0  0
    0.6842   -4.3495   -0.8827 C   0  0  0  0  0  0  0  0  0  0  0  0
   -0.4528    5.1876   -1.2467 C   0  0  0  0  0  0  0  0  0  0  0  0
   -1.7687    4.7554   -1.3696 C   0  0  0  0  0  0  0  0  0  0  0  0
    6.1174    0.1446    0.5563 C   0  0  0  0  0  0  0  0  0  0  0  0
    5.2625   -0.5238    2.6999 C   0  0  0  0  0  0  0  0  0  0  0  0
   -0.8148   -5.0243    0.8993 C   0  0  0  0  0  0  0  0  0  0  0  0
    0.2520   -5.2953    0.0496 C   0  0  0  0  0  0  0  0  0  0  0  0
    4.2786    0.4395   -1.1581 H   0  0  0  0  0  0  0  0  0  0  0  0
    2.8738    2.4530   -1.0481 H   0  0  0  0  0  0  0  0  0  0  0  0
    4.1582    2.4270    0.1460 H   0  0  0  0  0  0  0  0  0  0  0  0
    2.3595    1.6791    1.8943 H   0  0  0  0  0  0  0  0  0  0  0  0
    2.3686    3.3225    1.3203 H   0  0  0  0  0  0  0  0  0  0  0  0
    3.9421   -1.3936    0.5657 H   0  0  0  0  0  0  0  0  0  0  0  0
    2.9147   -0.3517    1.4930 H   0  0  0  0  0  0  0  0  0  0  0  0
    0.3527    0.3171    1.5256 H   0  0  0  0  0  0  0  0  0  0  0  0
    1.0894   -0.9919   -3.3021 H   0  0  0  0  0  0  0  0  0  0  0  0
    1.5829   -2.6863   -3.1309 H   0  0  0  0  0  0  0  0  0  0  0  0
    2.8492   -2.0812   -1.0393 H   0  0  0  0  0  0  0  0  0  0  0  0
    3.4485   -1.1950   -2.4626 H   0  0  0  0  0  0  0  0  0  0  0  0
   -0.7305   -0.1226   -2.0188 H   0  0  0  0  0  0  0  0  0  0  0  0
    1.5272    4.7490   -0.5077 H   0  0  0  0  0  0  0  0  0  0  0  0
   -3.1995    3.2050   -0.9442 H   0  0  0  0  0  0  0  0  0  0  0  0
   -5.4739   -0.1407    1.4167 H   0  0  0  0  0  0  0  0  0  0  0  0
   -2.3052   -3.6034    1.5194 H   0  0  0  0  0  0  0  0  0  0  0  0
    1.5301   -4.5620   -1.5282 H   0  0  0  0  0  0  0  0  0  0  0  0
   -0.1592    6.1442   -1.6710 H   0  0  0  0  0  0  0  0  0  0  0  0
   -2.4943    5.3752   -1.8893 H   0  0  0  0  0  0  0  0  0  0  0  0
    6.0625    0.8921   -0.2402 H   0  0  0  0  0  0  0  0  0  0  0  0
    6.2602   -0.8486    0.1149 H   0  0  0  0  0  0  0  0  0  0  0  0
    7.0322    0.3959    1.1075 H   0  0  0  0  0  0  0  0  0  0  0  0
    4.4150   -0.4685    3.3922 H   0  0  0  0  0  0  0  0  0  0  0  0
    6.1148   -0.0618    3.2104 H   0  0  0  0  0  0  0  0  0  0  0  0
    5.4941   -1.5796    2.5185 H   0  0  0  0  0  0  0  0  0  0  0  0
   -1.1281   -5.7686    1.6265 H   0  0  0  0  0  0  0  0  0  0  0  0
    0.7646   -6.2513    0.1183 H   0  0  0  0  0  0  0  0  0  0  0  0
  1  8  1  0  0  0  0
  1 22  1  0  0  0  0
  2 24  2  0  0  0  0
  3 26  2  0  0  0  0
  4 10  1  0  0  0  0
  4 12  1  0  0  0  0
  4 17  1  0  0  0  0
  5 19  1  0  0  0  0
  5 21  1  0  0  0  0
  5 23  1  0  0  0  0
  6 15  1  0  0  0  0
  6 32  1  0  0  0  0
  6 33  1  0  0  0  0
  7 24  1  0  0  0  0
  7 26  1  0  0  0  0
  7 51  1  0  0  0  0
  8  9  1  0  0  0  0
  8 15  1  0  0  0  0
  8 36  1  0  0  0  0
  9 10  1  0  0  0  0
  9 37  1  0  0  0  0
  9 38  1  0  0  0  0
 10 39  1  0  0  0  0
 10 40  1  0  0  0  0
 11 13  1  0  0  0  0
 11 14  1  0  0  0  0
 11 17  2  0  0  0  0
 12 13  1  0  0  0  0
 12 25  2  0  0  0  0
 13 27  2  0  0  0  0
 14 18  2  0  0  0  0
 14 24  1  0  0  0  0
 15 41  1  0  0  0  0
 15 42  1  0  0  0  0
 16 18  1  0  0  0  0
 16 20  1  0  0  0  0
 16 23  2  0  0  0  0
 17 43  1  0  0  0  0
 18 26  1  0  0  0  0
 19 22  1  0  0  0  0
 19 44  1  0  0  0  0
 19 45  1  0  0  0  0
 20 21  1  0  0  0  0
 20 28  2  0  0  0  0
 21 29  2  0  0  0  0
 22 46  1  0  0  0  0
 22 47  1  0  0  0  0
 23 48  1  0  0  0  0
 25 30  1  0  0  0  0
 25 49  1  0  0  0  0
 27 31  1  0  0  0  0
 27 50  1  0  0  0  0
 28 34  1  0  0  0  0
 28 52  1  0  0  0  0
 29 35  1  0  0  0  0
 29 53  1  0  0  0  0
 30 31  2  0  0  0  0
 30 54  1  0  0  0  0
 31 55  1  0  0  0  0
 32 56  1  0  0  0  0
 32 57  1  0  0  0  0
 32 58  1  0  0  0  0
 33 59  1  0  0  0  0
 33 60  1  0  0  0  0
 33 61  1  0  0  0  0
 34 35  2  0  0  0  0
 34 62  1  0  0  0  0
 35 63  1  0  0  0  0
M  END
> <PUBCHEM_COMPOUND_CID>
9892366

> <PUBCHEM_CONFORMER_RMSD>
0.8

> <PUBCHEM_CONFORMER_DIVERSEORDER>
1
12
7
18
3
2
20
16
11
8
13
14
10
17
15
19
9
6
4
21
5

> <PUBCHEM_MMFF94_PARTIAL_CHARGES>
43
1 -0.56
10 0.26
11 -0.05
12 -0.15
14 0.06
15 0.27
16 -0.05
17 -0.3
18 0.06
19 0.26
2 -0.57
21 -0.15
22 0.28
23 -0.3
24 0.62
25 -0.15
26 0.62
27 -0.15
28 -0.15
29 -0.15
3 -0.57
30 -0.15
31 -0.15
32 0.27
33 0.27
34 -0.15
35 -0.15
4 0.05
43 0.15
48 0.15
49 0.15
5 0.05
50 0.15
51 0.37
52 0.15
53 0.15
54 0.15
55 0.15
6 -0.81
62 0.15
63 0.15
7 -0.49
8 0.28

> <PUBCHEM_EFFECTIVE_ROTOR_COUNT>
3.4

> <PUBCHEM_PHARMACOPHORE_FEATURES>
12
1 1 acceptor
1 2 acceptor
1 3 acceptor
1 4 cation
1 5 cation
1 6 cation
1 7 donor
5 4 11 12 13 17 rings
5 5 16 20 21 23 rings
5 7 14 18 24 26 rings
6 12 13 25 27 30 31 rings
6 20 21 28 29 34 35 rings

> <PUBCHEM_HEAVY_ATOM_COUNT>
35

> <PUBCHEM_ATOM_DEF_STEREO_COUNT>
0

> <PUBCHEM_ATOM_UDEF_STEREO_COUNT>
1

> <PUBCHEM_BOND_DEF_STEREO_COUNT>
0

> <PUBCHEM_BOND_UDEF_STEREO_COUNT>
0

> <PUBCHEM_ISOTOPIC_ATOM_COUNT>
0

> <PUBCHEM_COMPONENT_COUNT>
1

> <PUBCHEM_CACTVS_TAUTO_COUNT>
3

> <PUBCHEM_CONFORMER_ID>
0096F20E00000001

> <PUBCHEM_MMFF94_ENERGY>
82.791

> <PUBCHEM_FEATURE_SELFOVERLAP>
61.075

> <PUBCHEM_SHAPE_FINGERPRINT>
10032420 55 17762933998620190694
10674148 151 15392375302611659053
10930396 42 17980158111523892056
12422481 6 18272934899426093520
12633257 1 18338515369286333834
12788726 201 18187376436729223172
13140716 1 18341905060550082753
13402501 40 18059870428363155566
13726171 33 17694538079198718104
14725015 67 18412537704365816890
14856354 85 18337388366321950262
16110190 28 18269552913734717360
16728300 4 17824521020657312434
20691752 17 18268168508024740527
20764821 26 18337685100499838349
238918 7 18199178508383637188
3298306 158 17836912418165655344
352729 6 17623867012377804127
484989 97 17109618376189958989
5265222 85 18265900156045361028
57527358 35 15502670342161246839
6669772 16 17617358603030995053

> <PUBCHEM_SHAPE_MULTIPOLES>
682.75
7.88
7.76
1.82
2.25
6.86
0.17
-2.59
2.06
-3.69
-5.03
-0.67
1.09
1.36

> <PUBCHEM_SHAPE_SELFOVERLAP>
1526.067

> <PUBCHEM_SHAPE_VOLUME>
364.3

> <PUBCHEM_COORDINATE_TYPE>
2
5
10

$$$$
