71552941
  -OEChem-03202504542D

 64 67  0     0  0  0  0  0  0999 V2000
   11.3769   -3.8512    0.0000 Cl  0  0  0  0  0  0  0  0  0  0  0  0
   14.8410   -1.8512    0.0000 Cl  0  0  0  0  0  0  0  0  0  0  0  0
    4.2213   -1.0149    0.0000 O   0  0  0  0  0  0  0  0  0  0  0  0
    7.9128    2.1488    0.0000 O   0  0  0  0  0  0  0  0  0  0  0  0
    9.6448    2.1488    0.0000 N   0  0  0  0  0  0  0  0  0  0  0  0
    3.5827    0.6488    0.0000 N   0  0  0  0  0  0  0  0  0  0  0  0
   10.5109    0.6488    0.0000 N   0  0  0  0  0  0  0  0  0  0  0  0
    7.0468    0.6488    0.0000 N   0  0  0  0  0  0  0  0  0  0  0  0
    9.6448   -0.8512    0.0000 N   0  0  0  0  0  0  0  0  0  0  0  0
   11.3769   -0.8512    0.0000 N   0  0  0  0  0  0  0  0  0  0  0  0
   10.5109    2.6488    0.0000 C   0  0  0  0  0  0  0  0  0  0  0  0
   11.4244    2.2420    0.0000 C   0  0  0  0  0  0  0  0  0  0  0  0
   10.6154    3.6433    0.0000 C   0  0  0  0  0  0  0  0  0  0  0  0
   12.0936    2.9852    0.0000 C   0  0  0  0  0  0  0  0  0  0  0  0
   11.5936    3.8512    0.0000 C   0  0  0  0  0  0  0  0  0  0  0  0
    9.6448    1.1488    0.0000 C   0  0  0  0  0  0  0  0  0  0  0  0
    2.6691    1.0555    0.0000 C   0  0  0  0  0  0  0  0  0  0  0  0
    2.0000    0.3124    0.0000 C   0  0  0  0  0  0  0  0  0  0  0  0
    4.4487    1.1488    0.0000 C   0  0  0  0  0  0  0  0  0  0  0  0
    2.5000   -0.5536    0.0000 C   0  0  0  0  0  0  0  0  0  0  0  0
    3.4782   -0.3457    0.0000 C   0  0  0  0  0  0  0  0  0  0  0  0
    5.3147    0.6488    0.0000 C   0  0  0  0  0  0  0  0  0  0  0  0
    8.7788    0.6488    0.0000 C   0  0  0  0  0  0  0  0  0  0  0  0
    6.1808    1.1488    0.0000 C   0  0  0  0  0  0  0  0  0  0  0  0
    7.9128    1.1488    0.0000 C   0  0  0  0  0  0  0  0  0  0  0  0
    8.7788   -0.3512    0.0000 C   0  0  0  0  0  0  0  0  0  0  0  0
   10.5109   -0.3512    0.0000 C   0  0  0  0  0  0  0  0  0  0  0  0
   11.3769   -1.8512    0.0000 C   0  0  0  0  0  0  0  0  0  0  0  0
   12.2429   -2.3512    0.0000 C   0  0  0  0  0  0  0  0  0  0  0  0
   12.2429   -3.3512    0.0000 C   0  0  0  0  0  0  0  0  0  0  0  0
   13.1090   -1.8512    0.0000 C   0  0  0  0  0  0  0  0  0  0  0  0
   13.9750   -2.3512    0.0000 C   0  0  0  0  0  0  0  0  0  0  0  0
   13.1090   -3.8512    0.0000 C   0  0  0  0  0  0  0  0  0  0  0  0
   13.9750   -3.3512    0.0000 C   0  0  0  0  0  0  0  0  0  0  0  0
   10.5433    2.0296    0.0000 H   0  0  0  0  0  0  0  0  0  0  0  0
   11.1144    1.7051    0.0000 H   0  0  0  0  0  0  0  0  0  0  0  0
   11.9260    1.8776    0.0000 H   0  0  0  0  0  0  0  0  0  0  0  0
   10.5506    4.2599    0.0000 H   0  0  0  0  0  0  0  0  0  0  0  0
    9.9954    3.6433    0.0000 H   0  0  0  0  0  0  0  0  0  0  0  0
   12.5084    2.5244    0.0000 H   0  0  0  0  0  0  0  0  0  0  0  0
   12.5951    3.3496    0.0000 H   0  0  0  0  0  0  0  0  0  0  0  0
   12.1600    4.1034    0.0000 H   0  0  0  0  0  0  0  0  0  0  0  0
   11.4020    4.4409    0.0000 H   0  0  0  0  0  0  0  0  0  0  0  0
    9.1079    2.4588    0.0000 H   0  0  0  0  0  0  0  0  0  0  0  0
    2.9791    1.5925    0.0000 H   0  0  0  0  0  0  0  0  0  0  0  0
    2.1675    1.4200    0.0000 H   0  0  0  0  0  0  0  0  0  0  0  0
    1.5851    0.7731    0.0000 H   0  0  0  0  0  0  0  0  0  0  0  0
    1.4984   -0.0521    0.0000 H   0  0  0  0  0  0  0  0  0  0  0  0
    4.8472    1.6237    0.0000 H   0  0  0  0  0  0  0  0  0  0  0  0
    4.0502    1.6237    0.0000 H   0  0  0  0  0  0  0  0  0  0  0  0
    1.9336   -0.8058    0.0000 H   0  0  0  0  0  0  0  0  0  0  0  0
    2.6916   -1.1433    0.0000 H   0  0  0  0  0  0  0  0  0  0  0  0
    4.9162    0.1738    0.0000 H   0  0  0  0  0  0  0  0  0  0  0  0
    5.7133    0.1738    0.0000 H   0  0  0  0  0  0  0  0  0  0  0  0
    6.5793    1.6237    0.0000 H   0  0  0  0  0  0  0  0  0  0  0  0
    5.7822    1.6237    0.0000 H   0  0  0  0  0  0  0  0  0  0  0  0
    7.0468    0.0288    0.0000 H   0  0  0  0  0  0  0  0  0  0  0  0
    8.2419   -0.6612    0.0000 H   0  0  0  0  0  0  0  0  0  0  0  0
   11.9138   -0.5412    0.0000 H   0  0  0  0  0  0  0  0  0  0  0  0
   10.7663   -1.7436    0.0000 H   0  0  0  0  0  0  0  0  0  0  0  0
   11.1649   -2.4338    0.0000 H   0  0  0  0  0  0  0  0  0  0  0  0
   13.1090   -1.2312    0.0000 H   0  0  0  0  0  0  0  0  0  0  0  0
   13.1090   -4.4712    0.0000 H   0  0  0  0  0  0  0  0  0  0  0  0
   14.5119   -3.6612    0.0000 H   0  0  0  0  0  0  0  0  0  0  0  0
  1 30  1  0  0  0  0
  2 32  1  0  0  0  0
  3 21  2  0  0  0  0
  4 25  2  0  0  0  0
  5 11  1  0  0  0  0
  5 16  1  0  0  0  0
  5 44  1  0  0  0  0
  6 17  1  0  0  0  0
  6 19  1  0  0  0  0
  6 21  1  0  0  0  0
  7 16  2  0  0  0  0
  7 27  1  0  0  0  0
  8 24  1  0  0  0  0
  8 25  1  0  0  0  0
  8 57  1  0  0  0  0
  9 26  1  0  0  0  0
  9 27  2  0  0  0  0
 10 27  1  0  0  0  0
 10 28  1  0  0  0  0
 10 59  1  0  0  0  0
 11 12  1  0  0  0  0
 11 13  1  0  0  0  0
 11 35  1  0  0  0  0
 12 14  1  0  0  0  0
 12 36  1  0  0  0  0
 12 37  1  0  0  0  0
 13 15  1  0  0  0  0
 13 38  1  0  0  0  0
 13 39  1  0  0  0  0
 14 15  1  0  0  0  0
 14 40  1  0  0  0  0
 14 41  1  0  0  0  0
 15 42  1  0  0  0  0
 15 43  1  0  0  0  0
 16 23  1  0  0  0  0
 17 18  1  0  0  0  0
 17 45  1  0  0  0  0
 17 46  1  0  0  0  0
 18 20  1  0  0  0  0
 18 47  1  0  0  0  0
 18 48  1  0  0  0  0
 19 22  1  0  0  0  0
 19 49  1  0  0  0  0
 19 50  1  0  0  0  0
 20 21  1  0  0  0  0
 20 51  1  0  0  0  0
 20 52  1  0  0  0  0
 22 24  1  0  0  0  0
 22 53  1  0  0  0  0
 22 54  1  0  0  0  0
 23 25  1  0  0  0  0
 23 26  2  0  0  0  0
 24 55  1  0  0  0  0
 24 56  1  0  0  0  0
 26 58  1  0  0  0  0
 28 29  1  0  0  0  0
 28 60  1  0  0  0  0
 28 61  1  0  0  0  0
 29 30  2  0  0  0  0
 29 31  1  0  0  0  0
 30 33  1  0  0  0  0
 31 32  2  0  0  0  0
 31 62  1  0  0  0  0
 32 34  1  0  0  0  0
 33 34  2  0  0  0  0
 33 63  1  0  0  0  0
 34 64  1  0  0  0  0
M  END
> <PUBCHEM_COMPOUND_CID>
71552941

> <PUBCHEM_COMPOUND_CANONICALIZED>
1

> <PUBCHEM_CACTVS_COMPLEXITY>
680

> <PUBCHEM_CACTVS_HBOND_ACCEPTOR>
6

> <PUBCHEM_CACTVS_HBOND_DONOR>
3

> <PUBCHEM_CACTVS_ROTATABLE_BOND>
10

> <PUBCHEM_CACTVS_SUBSKEYS>
AAADceB7sAAGAAAAAAAAAAAAAAAAAeIAAAA8QAAAAAAAAAABwAAAHgIQAAAADCrBmiQ9sJfIEACoAjN3dACCgCk1BaAJ2KEoRtiIKLrB21GEJIholgLIiOcUgAAOAAAQIAABAAAAACBAAAIAAAAAAAAAAA==

> <PUBCHEM_IUPAC_OPENEYE_NAME>
4-(cyclopentylamino)-2-[(2,5-dichlorophenyl)methylamino]-N-[3-(2-oxopyrrolidin-1-yl)propyl]pyrimidine-5-carboxamide

> <PUBCHEM_IUPAC_CAS_NAME>
4-(cyclopentylamino)-2-[(2,5-dichlorophenyl)methylamino]-N-[3-(2-oxo-1-pyrrolidinyl)propyl]-5-pyrimidinecarboxamide

> <PUBCHEM_IUPAC_NAME_MARKUP>
4-(cyclopentylamino)-2-[(2,5-dichlorophenyl)methylamino]-<I>N</I>-[3-(2-oxopyrrolidin-1-yl)propyl]pyrimidine-5-carboxamide

> <PUBCHEM_IUPAC_NAME>
4-(cyclopentylamino)-2-[(2,5-dichlorophenyl)methylamino]-N-[3-(2-oxopyrrolidin-1-yl)propyl]pyrimidine-5-carboxamide

> <PUBCHEM_IUPAC_SYSTEMATIC_NAME>
2-[[2,5-bis(chloranyl)phenyl]methylamino]-4-(cyclopentylamino)-N-[3-(2-oxidanylidenepyrrolidin-1-yl)propyl]pyrimidine-5-carboxamide

> <PUBCHEM_IUPAC_TRADITIONAL_NAME>
4-(cyclopentylamino)-2-[(2,5-dichlorobenzyl)amino]-N-[3-(2-ketopyrrolidino)propyl]pyrimidine-5-carboxamide

> <PUBCHEM_IUPAC_INCHI>
InChI=1S/C24H30Cl2N6O2/c25-17-8-9-20(26)16(13-17)14-28-24-29-15-19(22(31-24)30-18-5-1-2-6-18)23(34)27-10-4-12-32-11-3-7-21(32)33/h8-9,13,15,18H,1-7,10-12,14H2,(H,27,34)(H2,28,29,30,31)

> <PUBCHEM_IUPAC_INCHIKEY>
VDKBGBCLPKTOGS-UHFFFAOYSA-N

> <PUBCHEM_XLOGP3_AA>
4.6

> <PUBCHEM_EXACT_MASS>
504.1807296

> <PUBCHEM_MOLECULAR_FORMULA>
C24H30Cl2N6O2

> <PUBCHEM_MOLECULAR_WEIGHT>
505.4

> <PUBCHEM_SMILES>
C1CCC(C1)NC2=NC(=NC=C2C(=O)NCCCN3CCCC3=O)NCC4=C(C=CC(=C4)Cl)Cl

> <PUBCHEM_OPENEYE_CAN_SMILES>
C1CCC(C1)NC2=NC(=NC=C2C(=O)NCCCN3CCCC3=O)NCC4=C(C=CC(=C4)Cl)Cl

> <PUBCHEM_OPENEYE_ISO_SMILES>
C1CCC(C1)NC2=NC(=NC=C2C(=O)NCCCN3CCCC3=O)NCC4=C(C=CC(=C4)Cl)Cl

> <PUBCHEM_CACTVS_TPSA>
99.3

> <PUBCHEM_MONOISOTOPIC_WEIGHT>
504.1807296

> <PUBCHEM_TOTAL_CHARGE>
0

> <PUBCHEM_HEAVY_ATOM_COUNT>
34

> <PUBCHEM_ATOM_DEF_STEREO_COUNT>
0

> <PUBCHEM_ATOM_UDEF_STEREO_COUNT>
0

> <PUBCHEM_BOND_DEF_STEREO_COUNT>
0

> <PUBCHEM_BOND_UDEF_STEREO_COUNT>
0

> <PUBCHEM_ISOTOPIC_ATOM_COUNT>
0

> <PUBCHEM_COMPONENT_COUNT>
1

> <PUBCHEM_CACTVS_TAUTO_COUNT>
-1

> <PUBCHEM_COORDINATE_TYPE>
1
5
255

> <PUBCHEM_BONDANNOTATIONS>
16  23  8
23  26  8
29  30  8
29  31  8
30  33  8
31  32  8
32  34  8
33  34  8
7  16  8
7  27  8
9  26  8
9  27  8

$$$$
