46223479
  -OEChem-03202504092D

 66 70  0     0  0  0  0  0  0999 V2000
    4.6783   -1.2359    0.0000 S   0  0  0  0  0  0  0  0  0  0  0  0
    3.1403   -6.6062    0.0000 O   0  0  0  0  0  0  0  0  0  0  0  0
    7.5673    3.6375    0.0000 O   0  0  0  0  0  0  0  0  0  0  0  0
   11.1241    6.1572    0.0000 O   0  0  0  0  0  0  0  0  0  0  0  0
    3.3660   -3.9700    0.0000 N   0  0  0  0  0  0  0  0  0  0  0  0
    2.3660   -3.9700    0.0000 N   0  0  0  0  0  0  0  0  0  0  0  0
    2.0000    0.0688    0.0000 N   0  0  0  0  0  0  0  0  0  0  0  0
    2.8660    1.5688    0.0000 N   0  0  0  0  0  0  0  0  0  0  0  0
    5.9209    4.1756    0.0000 N   0  0  0  0  0  0  0  0  0  0  0  0
    7.2101    5.3324    0.0000 N   0  0  0  0  0  0  0  0  0  0  0  0
    3.5471   -5.6926    0.0000 C   0  0  0  0  0  0  0  0  0  0  0  0
    3.9538   -4.7791    0.0000 C   0  0  0  0  0  0  0  0  0  0  0  0
    2.8660   -2.4312    0.0000 C   0  0  0  0  0  0  0  0  0  0  0  0
    4.4606   -6.0993    0.0000 C   0  0  0  0  0  0  0  0  0  0  0  0
    2.6335   -5.2859    0.0000 C   0  0  0  0  0  0  0  0  0  0  0  0
    2.8660   -1.4312    0.0000 C   0  0  0  0  0  0  0  0  0  0  0  0
    3.6750   -3.0190    0.0000 C   0  0  0  0  0  0  0  0  0  0  0  0
    3.7320   -0.9312    0.0000 C   0  0  0  0  0  0  0  0  0  0  0  0
    3.7320    0.0688    0.0000 C   0  0  0  0  0  0  0  0  0  0  0  0
    4.6783    0.3735    0.0000 C   0  0  0  0  0  0  0  0  0  0  0  0
    2.0570   -3.0190    0.0000 C   0  0  0  0  0  0  0  0  0  0  0  0
    2.8660    0.5688    0.0000 C   0  0  0  0  0  0  0  0  0  0  0  0
    4.9889    1.3240    0.0000 C   0  0  0  0  0  0  0  0  0  0  0  0
    2.0000   -0.9312    0.0000 C   0  0  0  0  0  0  0  0  0  0  0  0
    5.2619   -0.4312    0.0000 C   0  0  0  0  0  0  0  0  0  0  0  0
    5.9674    1.5303    0.0000 C   0  0  0  0  0  0  0  0  0  0  0  0
    4.3211    2.0684    0.0000 C   0  0  0  0  0  0  0  0  0  0  0  0
    5.6103    3.2251    0.0000 C   0  0  0  0  0  0  0  0  0  0  0  0
    6.2781    2.4808    0.0000 C   0  0  0  0  0  0  0  0  0  0  0  0
    4.6318    3.0189    0.0000 C   0  0  0  0  0  0  0  0  0  0  0  0
    6.8994    4.3818    0.0000 C   0  0  0  0  0  0  0  0  0  0  0  0
    8.1886    5.5386    0.0000 C   0  0  0  0  0  0  0  0  0  0  0  0
    8.8564    4.7943    0.0000 C   0  0  0  0  0  0  0  0  0  0  0  0
    8.4993    6.4891    0.0000 C   0  0  0  0  0  0  0  0  0  0  0  0
    9.8349    5.0005    0.0000 C   0  0  0  0  0  0  0  0  0  0  0  0
    9.4778    6.6953    0.0000 C   0  0  0  0  0  0  0  0  0  0  0  0
   10.1456    5.9510    0.0000 C   0  0  0  0  0  0  0  0  0  0  0  0
   11.4348    7.1077    0.0000 C   0  0  0  0  0  0  0  0  0  0  0  0
    4.4678   -5.1258    0.0000 H   0  0  0  0  0  0  0  0  0  0  0  0
    4.3845   -4.3331    0.0000 H   0  0  0  0  0  0  0  0  0  0  0  0
    4.2084   -6.6657    0.0000 H   0  0  0  0  0  0  0  0  0  0  0  0
    5.0270   -6.3515    0.0000 H   0  0  0  0  0  0  0  0  0  0  0  0
    4.7128   -5.5329    0.0000 H   0  0  0  0  0  0  0  0  0  0  0  0
    2.8857   -4.7195    0.0000 H   0  0  0  0  0  0  0  0  0  0  0  0
    2.0671   -5.0337    0.0000 H   0  0  0  0  0  0  0  0  0  0  0  0
    2.3814   -5.8523    0.0000 H   0  0  0  0  0  0  0  0  0  0  0  0
    4.2647   -2.8274    0.0000 H   0  0  0  0  0  0  0  0  0  0  0  0
    1.4674   -2.8274    0.0000 H   0  0  0  0  0  0  0  0  0  0  0  0
    3.5048   -7.1077    0.0000 H   0  0  0  0  0  0  0  0  0  0  0  0
    1.4631   -1.2412    0.0000 H   0  0  0  0  0  0  0  0  0  0  0  0
    5.8819   -0.4312    0.0000 H   0  0  0  0  0  0  0  0  0  0  0  0
    6.3815    1.0688    0.0000 H   0  0  0  0  0  0  0  0  0  0  0  0
    3.7144    1.9405    0.0000 H   0  0  0  0  0  0  0  0  0  0  0  0
    6.8848    2.6086    0.0000 H   0  0  0  0  0  0  0  0  0  0  0  0
    4.2177    3.4803    0.0000 H   0  0  0  0  0  0  0  0  0  0  0  0
    2.3291    1.8788    0.0000 H   0  0  0  0  0  0  0  0  0  0  0  0
    3.4030    1.8788    0.0000 H   0  0  0  0  0  0  0  0  0  0  0  0
    5.5069    4.6371    0.0000 H   0  0  0  0  0  0  0  0  0  0  0  0
    6.7960    5.7938    0.0000 H   0  0  0  0  0  0  0  0  0  0  0  0
    8.6638    4.2049    0.0000 H   0  0  0  0  0  0  0  0  0  0  0  0
    8.0852    6.9506    0.0000 H   0  0  0  0  0  0  0  0  0  0  0  0
   10.2490    4.5390    0.0000 H   0  0  0  0  0  0  0  0  0  0  0  0
    9.6704    7.2846    0.0000 H   0  0  0  0  0  0  0  0  0  0  0  0
   12.0241    6.9151    0.0000 H   0  0  0  0  0  0  0  0  0  0  0  0
   11.6274    7.6971    0.0000 H   0  0  0  0  0  0  0  0  0  0  0  0
   10.8455    7.3004    0.0000 H   0  0  0  0  0  0  0  0  0  0  0  0
  1 18  1  0  0  0  0
  1 25  1  0  0  0  0
  2 11  1  0  0  0  0
  2 49  1  0  0  0  0
  3 31  2  0  0  0  0
  4 37  1  0  0  0  0
  4 38  1  0  0  0  0
  5  6  1  0  0  0  0
  5 12  1  0  0  0  0
  5 17  1  0  0  0  0
  6 21  2  0  0  0  0
  7 22  2  0  0  0  0
  7 24  1  0  0  0  0
  8 22  1  0  0  0  0
  8 56  1  0  0  0  0
  8 57  1  0  0  0  0
  9 28  1  0  0  0  0
  9 31  1  0  0  0  0
  9 58  1  0  0  0  0
 10 31  1  0  0  0  0
 10 32  1  0  0  0  0
 10 59  1  0  0  0  0
 11 12  1  0  0  0  0
 11 14  1  0  0  0  0
 11 15  1  0  0  0  0
 12 39  1  0  0  0  0
 12 40  1  0  0  0  0
 13 16  1  0  0  0  0
 13 17  2  0  0  0  0
 13 21  1  0  0  0  0
 14 41  1  0  0  0  0
 14 42  1  0  0  0  0
 14 43  1  0  0  0  0
 15 44  1  0  0  0  0
 15 45  1  0  0  0  0
 15 46  1  0  0  0  0
 16 18  1  0  0  0  0
 16 24  2  0  0  0  0
 17 47  1  0  0  0  0
 18 19  2  0  0  0  0
 19 20  1  0  0  0  0
 19 22  1  0  0  0  0
 20 23  1  0  0  0  0
 20 25  2  0  0  0  0
 21 48  1  0  0  0  0
 23 26  2  0  0  0  0
 23 27  1  0  0  0  0
 24 50  1  0  0  0  0
 25 51  1  0  0  0  0
 26 29  1  0  0  0  0
 26 52  1  0  0  0  0
 27 30  2  0  0  0  0
 27 53  1  0  0  0  0
 28 29  2  0  0  0  0
 28 30  1  0  0  0  0
 29 54  1  0  0  0  0
 30 55  1  0  0  0  0
 32 33  2  0  0  0  0
 32 34  1  0  0  0  0
 33 35  1  0  0  0  0
 33 60  1  0  0  0  0
 34 36  2  0  0  0  0
 34 61  1  0  0  0  0
 35 37  2  0  0  0  0
 35 62  1  0  0  0  0
 36 37  1  0  0  0  0
 36 63  1  0  0  0  0
 38 64  1  0  0  0  0
 38 65  1  0  0  0  0
 38 66  1  0  0  0  0
M  END
> <PUBCHEM_COMPOUND_CID>
46223479

> <PUBCHEM_COMPOUND_CANONICALIZED>
1

> <PUBCHEM_CACTVS_COMPLEXITY>
789

> <PUBCHEM_CACTVS_HBOND_ACCEPTOR>
7

> <PUBCHEM_CACTVS_HBOND_DONOR>
4

> <PUBCHEM_CACTVS_ROTATABLE_BOND>
7

> <PUBCHEM_CACTVS_SUBSKEYS>
AAADceB7sABAAAAAAAAAAAAAAAAAAWJAAAA8YIAAAAAAAFgB/gAAHgQYCAAADEzF2ga/99LIFgiuAjZndACTjKkxqjAY2DAubJiOJuLk8duEtCxs3BP46CewwMAOiEAAAAAAAAAQgAAAAAAAAAAAAAAAAA==

> <PUBCHEM_IUPAC_OPENEYE_NAME>
1-[4-[4-amino-7-[1-(2-hydroxy-2-methyl-propyl)pyrazol-4-yl]thieno[3,2-c]pyridin-3-yl]phenyl]-3-(4-methoxyphenyl)urea

> <PUBCHEM_IUPAC_CAS_NAME>
1-[4-[4-amino-7-[1-(2-hydroxy-2-methylpropyl)-4-pyrazolyl]-3-thieno[3,2-c]pyridinyl]phenyl]-3-(4-methoxyphenyl)urea

> <PUBCHEM_IUPAC_NAME_MARKUP>
1-[4-[4-amino-7-[1-(2-hydroxy-2-methylpropyl)pyrazol-4-yl]thieno[3,2-c]pyridin-3-yl]phenyl]-3-(4-methoxyphenyl)urea

> <PUBCHEM_IUPAC_NAME>
1-[4-[4-amino-7-[1-(2-hydroxy-2-methylpropyl)pyrazol-4-yl]thieno[3,2-c]pyridin-3-yl]phenyl]-3-(4-methoxyphenyl)urea

> <PUBCHEM_IUPAC_SYSTEMATIC_NAME>
1-[4-[4-azanyl-7-[1-(2-methyl-2-oxidanyl-propyl)pyrazol-4-yl]thieno[3,2-c]pyridin-3-yl]phenyl]-3-(4-methoxyphenyl)urea

> <PUBCHEM_IUPAC_TRADITIONAL_NAME>
1-[4-[4-amino-7-[1-(2-hydroxy-2-methyl-propyl)pyrazol-4-yl]thieno[3,2-c]pyridin-3-yl]phenyl]-3-(4-methoxyphenyl)urea

> <PUBCHEM_IUPAC_INCHI>
InChI=1S/C28H28N6O3S/c1-28(2,36)16-34-14-18(12-31-34)22-13-30-26(29)24-23(15-38-25(22)24)17-4-6-19(7-5-17)32-27(35)33-20-8-10-21(37-3)11-9-20/h4-15,36H,16H2,1-3H3,(H2,29,30)(H2,32,33,35)

> <PUBCHEM_IUPAC_INCHIKEY>
ADLPKFFMGIJZIM-UHFFFAOYSA-N

> <PUBCHEM_XLOGP3_AA>
3.5

> <PUBCHEM_EXACT_MASS>
528.19435995

> <PUBCHEM_MOLECULAR_FORMULA>
C28H28N6O3S

> <PUBCHEM_MOLECULAR_WEIGHT>
528.6

> <PUBCHEM_SMILES>
CC(C)(CN1C=C(C=N1)C2=CN=C(C3=C2SC=C3C4=CC=C(C=C4)NC(=O)NC5=CC=C(C=C5)OC)N)O

> <PUBCHEM_OPENEYE_CAN_SMILES>
CC(C)(CN1C=C(C=N1)C2=CN=C(C3=C2SC=C3C4=CC=C(C=C4)NC(=O)NC5=CC=C(C=C5)OC)N)O

> <PUBCHEM_OPENEYE_ISO_SMILES>
CC(C)(CN1C=C(C=N1)C2=CN=C(C3=C2SC=C3C4=CC=C(C=C4)NC(=O)NC5=CC=C(C=C5)OC)N)O

> <PUBCHEM_CACTVS_TPSA>
156

> <PUBCHEM_MONOISOTOPIC_WEIGHT>
528.19435995

> <PUBCHEM_TOTAL_CHARGE>
0

> <PUBCHEM_HEAVY_ATOM_COUNT>
38

> <PUBCHEM_ATOM_DEF_STEREO_COUNT>
0

> <PUBCHEM_ATOM_UDEF_STEREO_COUNT>
0

> <PUBCHEM_BOND_DEF_STEREO_COUNT>
0

> <PUBCHEM_BOND_UDEF_STEREO_COUNT>
0

> <PUBCHEM_ISOTOPIC_ATOM_COUNT>
0

> <PUBCHEM_COMPONENT_COUNT>
1

> <PUBCHEM_CACTVS_TAUTO_COUNT>
-1

> <PUBCHEM_COORDINATE_TYPE>
1
5
255

> <PUBCHEM_BONDANNOTATIONS>
1  18  8
1  25  8
13  17  8
13  21  8
16  18  8
16  24  8
18  19  8
19  20  8
19  22  8
20  25  8
23  26  8
23  27  8
26  29  8
27  30  8
28  29  8
28  30  8
32  33  8
32  34  8
33  35  8
34  36  8
35  37  8
36  37  8
5  17  8
5  6  8
6  21  8
7  22  8
7  24  8

$$$$
