25167280
  -OEChem-03202500262D

 27 30  0     0  0  0  0  0  0999 V2000
    3.5000    0.4970    0.0000 N   0  0  0  0  0  0  0  0  0  0  0  0
    4.9718    1.1538    0.0000 N   0  0  0  0  0  0  0  0  0  0  0  0
    8.6192   -1.6397    0.0000 N   0  0  0  0  0  0  0  0  0  0  0  0
    9.2028   -0.8349    0.0000 N   0  0  0  0  0  0  0  0  0  0  0  0
    3.5000    2.2290    0.0000 N   0  0  0  0  0  0  0  0  0  0  0  0
    5.9409   -0.3349    0.0000 C   0  0  0  0  0  0  0  0  0  0  0  0
    5.0749    0.1651    0.0000 C   0  0  0  0  0  0  0  0  0  0  0  0
    7.6730   -0.3349    0.0000 C   0  0  0  0  0  0  0  0  0  0  0  0
    7.6730   -1.3350    0.0000 C   0  0  0  0  0  0  0  0  0  0  0  0
    6.8069    0.1651    0.0000 C   0  0  0  0  0  0  0  0  0  0  0  0
    4.1671   -0.2401    0.0000 C   0  0  0  0  0  0  0  0  0  0  0  0
    5.9409   -1.3350    0.0000 C   0  0  0  0  0  0  0  0  0  0  0  0
    4.0000    1.3630    0.0000 C   0  0  0  0  0  0  0  0  0  0  0  0
    6.8069   -1.8350    0.0000 C   0  0  0  0  0  0  0  0  0  0  0  0
    8.6192   -0.0302    0.0000 C   0  0  0  0  0  0  0  0  0  0  0  0
    2.5000    0.4970    0.0000 C   0  0  0  0  0  0  0  0  0  0  0  0
    2.0000    1.3630    0.0000 C   0  0  0  0  0  0  0  0  0  0  0  0
    2.5000    2.2290    0.0000 C   0  0  0  0  0  0  0  0  0  0  0  0
    6.8069    0.7851    0.0000 H   0  0  0  0  0  0  0  0  0  0  0  0
    4.0392   -0.8467    0.0000 H   0  0  0  0  0  0  0  0  0  0  0  0
    5.4040   -1.6450    0.0000 H   0  0  0  0  0  0  0  0  0  0  0  0
    6.8069   -2.4550    0.0000 H   0  0  0  0  0  0  0  0  0  0  0  0
    8.8118    0.5591    0.0000 H   0  0  0  0  0  0  0  0  0  0  0  0
    2.1900   -0.0400    0.0000 H   0  0  0  0  0  0  0  0  0  0  0  0
    8.8118   -2.2290    0.0000 H   0  0  0  0  0  0  0  0  0  0  0  0
    1.3800    1.3630    0.0000 H   0  0  0  0  0  0  0  0  0  0  0  0
    2.1900    2.7659    0.0000 H   0  0  0  0  0  0  0  0  0  0  0  0
  1 11  1  0  0  0  0
  1 13  1  0  0  0  0
  1 16  1  0  0  0  0
  2  7  1  0  0  0  0
  2 13  2  0  0  0  0
  3  4  1  0  0  0  0
  3  9  1  0  0  0  0
  3 25  1  0  0  0  0
  4 15  2  0  0  0  0
  5 13  1  0  0  0  0
  5 18  2  0  0  0  0
  6  7  1  0  0  0  0
  6 10  2  0  0  0  0
  6 12  1  0  0  0  0
  7 11  2  0  0  0  0
  8  9  2  0  0  0  0
  8 10  1  0  0  0  0
  8 15  1  0  0  0  0
  9 14  1  0  0  0  0
 10 19  1  0  0  0  0
 11 20  1  0  0  0  0
 12 14  2  0  0  0  0
 12 21  1  0  0  0  0
 14 22  1  0  0  0  0
 15 23  1  0  0  0  0
 16 17  2  0  0  0  0
 16 24  1  0  0  0  0
 17 18  1  0  0  0  0
 17 26  1  0  0  0  0
 18 27  1  0  0  0  0
M  END
> <PUBCHEM_COMPOUND_CID>
25167280

> <PUBCHEM_COMPOUND_CANONICALIZED>
1

> <PUBCHEM_CACTVS_COMPLEXITY>
310

> <PUBCHEM_CACTVS_HBOND_ACCEPTOR>
3

> <PUBCHEM_CACTVS_HBOND_DONOR>
1

> <PUBCHEM_CACTVS_ROTATABLE_BOND>
1

> <PUBCHEM_CACTVS_SUBSKEYS>
AAADccBzgAAAAAAAAAAAAAAAAAAAAWLAAAA8QAAAAAAAAFgB/gAAHAAYAAAADAjBHgQ90PdvGACiAzRnZACShC0xkqAZ+SA4dJiIaOLA2dGUpAhomALIyCcQgMAOCAACAAACAAAQAAQAAAQAAAAAAAAAAA==

> <PUBCHEM_IUPAC_OPENEYE_NAME>
2-(1H-indazol-5-yl)imidazo[1,2-a]pyrimidine

> <PUBCHEM_IUPAC_CAS_NAME>
2-(1H-indazol-5-yl)imidazo[1,2-a]pyrimidine

> <PUBCHEM_IUPAC_NAME_MARKUP>
2-(1<I>H</I>-indazol-5-yl)imidazo[1,2-a]pyrimidine

> <PUBCHEM_IUPAC_NAME>
2-(1H-indazol-5-yl)imidazo[1,2-a]pyrimidine

> <PUBCHEM_IUPAC_SYSTEMATIC_NAME>
2-(1H-indazol-5-yl)imidazo[1,2-a]pyrimidine

> <PUBCHEM_IUPAC_TRADITIONAL_NAME>
2-(1H-indazol-5-yl)imidazo[1,2-a]pyrimidine

> <PUBCHEM_IUPAC_INCHI>
InChI=1S/C13H9N5/c1-4-14-13-16-12(8-18(13)5-1)9-2-3-11-10(6-9)7-15-17-11/h1-8H,(H,15,17)

> <PUBCHEM_IUPAC_INCHIKEY>
CPGKMMMSMJKHDL-UHFFFAOYSA-N

> <PUBCHEM_XLOGP3_AA>
2.4

> <PUBCHEM_EXACT_MASS>
235.08579531

> <PUBCHEM_MOLECULAR_FORMULA>
C13H9N5

> <PUBCHEM_MOLECULAR_WEIGHT>
235.24

> <PUBCHEM_SMILES>
C1=CN2C=C(N=C2N=C1)C3=CC4=C(C=C3)NN=C4

> <PUBCHEM_OPENEYE_CAN_SMILES>
C1=CN2C=C(N=C2N=C1)C3=CC4=C(C=C3)NN=C4

> <PUBCHEM_OPENEYE_ISO_SMILES>
C1=CN2C=C(N=C2N=C1)C3=CC4=C(C=C3)NN=C4

> <PUBCHEM_CACTVS_TPSA>
58.9

> <PUBCHEM_MONOISOTOPIC_WEIGHT>
235.08579531

> <PUBCHEM_TOTAL_CHARGE>
0

> <PUBCHEM_HEAVY_ATOM_COUNT>
18

> <PUBCHEM_ATOM_DEF_STEREO_COUNT>
0

> <PUBCHEM_ATOM_UDEF_STEREO_COUNT>
0

> <PUBCHEM_BOND_DEF_STEREO_COUNT>
0

> <PUBCHEM_BOND_UDEF_STEREO_COUNT>
0

> <PUBCHEM_ISOTOPIC_ATOM_COUNT>
0

> <PUBCHEM_COMPONENT_COUNT>
1

> <PUBCHEM_CACTVS_TAUTO_COUNT>
-1

> <PUBCHEM_COORDINATE_TYPE>
1
5
255

> <PUBCHEM_BONDANNOTATIONS>
1  11  8
1  13  8
1  16  8
12  14  8
16  17  8
17  18  8
2  13  8
2  7  8
3  4  8
3  9  8
4  15  8
5  13  8
5  18  8
6  10  8
6  12  8
7  11  8
8  10  8
8  15  8
8  9  8
9  14  8

$$$$
