49830653
  -OEChem-03202500502D

 77 80  0     0  0  0  0  0  0999 V2000
    9.0635   -1.2128    0.0000 O   0  0  0  0  0  0  0  0  0  0  0  0
    5.5717    1.5238    0.0000 O   0  0  0  0  0  0  0  0  0  0  0  0
    5.4672   -1.4707    0.0000 N   0  0  0  0  0  0  0  0  0  0  0  0
    4.4890   -1.6786    0.0000 N   0  0  0  0  0  0  0  0  0  0  0  0
    6.4378    0.0238    0.0000 N   0  0  0  0  0  0  0  0  0  0  0  0
    9.5987   -2.8601    0.0000 N   0  0  0  0  0  0  0  0  0  0  0  0
   12.9871   -3.5803    0.0000 N   0  0  0  0  0  0  0  0  0  0  0  0
    7.3038    1.5238    0.0000 N   0  0  0  0  0  0  0  0  0  0  0  0
    2.9945   -0.7081    0.0000 C   0  0  0  0  0  0  0  0  0  0  0  0
    3.9890   -0.8126    0.0000 C   0  0  0  0  0  0  0  0  0  0  0  0
    2.0000   -0.6036    0.0000 C   0  0  0  0  0  0  0  0  0  0  0  0
    2.8900   -1.7026    0.0000 C   0  0  0  0  0  0  0  0  0  0  0  0
    3.0990    0.2864    0.0000 C   0  0  0  0  0  0  0  0  0  0  0  0
    4.6582   -0.0695    0.0000 C   0  0  0  0  0  0  0  0  0  0  0  0
    5.5717   -0.4762    0.0000 C   0  0  0  0  0  0  0  0  0  0  0  0
    6.2103   -2.1399    0.0000 C   0  0  0  0  0  0  0  0  0  0  0  0
   10.5498   -2.5511    0.0000 C   0  0  0  0  0  0  0  0  0  0  0  0
   11.2929   -3.2202    0.0000 C   0  0  0  0  0  0  0  0  0  0  0  0
    7.1614   -1.8308    0.0000 C   0  0  0  0  0  0  0  0  0  0  0  0
    7.9045   -2.5000    0.0000 C   0  0  0  0  0  0  0  0  0  0  0  0
   12.2440   -2.9112    0.0000 C   0  0  0  0  0  0  0  0  0  0  0  0
    6.0024   -3.1180    0.0000 C   0  0  0  0  0  0  0  0  0  0  0  0
    8.8556   -2.1910    0.0000 C   0  0  0  0  0  0  0  0  0  0  0  0
    7.6966   -3.4781    0.0000 C   0  0  0  0  0  0  0  0  0  0  0  0
    6.7456   -3.7871    0.0000 C   0  0  0  0  0  0  0  0  0  0  0  0
    6.4378    1.0238    0.0000 C   0  0  0  0  0  0  0  0  0  0  0  0
    9.3908   -3.8382    0.0000 C   0  0  0  0  0  0  0  0  0  0  0  0
   13.9382   -3.2713    0.0000 C   0  0  0  0  0  0  0  0  0  0  0  0
   12.7792   -4.5585    0.0000 C   0  0  0  0  0  0  0  0  0  0  0  0
    7.3038    2.5238    0.0000 C   0  0  0  0  0  0  0  0  0  0  0  0
    8.1698    3.0238    0.0000 C   0  0  0  0  0  0  0  0  0  0  0  0
    8.1698    4.0238    0.0000 C   0  0  0  0  0  0  0  0  0  0  0  0
    6.4378    3.0238    0.0000 C   0  0  0  0  0  0  0  0  0  0  0  0
    9.0637    2.4891    0.0000 C   0  0  0  0  0  0  0  0  0  0  0  0
    7.3038    4.5238    0.0000 C   0  0  0  0  0  0  0  0  0  0  0  0
    6.4378    4.0238    0.0000 C   0  0  0  0  0  0  0  0  0  0  0  0
    9.0637    4.5585    0.0000 C   0  0  0  0  0  0  0  0  0  0  0  0
    9.9698    3.0030    0.0000 C   0  0  0  0  0  0  0  0  0  0  0  0
    9.9698    4.0446    0.0000 C   0  0  0  0  0  0  0  0  0  0  0  0
    2.0648    0.0130    0.0000 H   0  0  0  0  0  0  0  0  0  0  0  0
    1.3834   -0.5387    0.0000 H   0  0  0  0  0  0  0  0  0  0  0  0
    1.9352   -1.2202    0.0000 H   0  0  0  0  0  0  0  0  0  0  0  0
    2.2734   -1.6378    0.0000 H   0  0  0  0  0  0  0  0  0  0  0  0
    2.8252   -2.3192    0.0000 H   0  0  0  0  0  0  0  0  0  0  0  0
    3.5066   -1.7674    0.0000 H   0  0  0  0  0  0  0  0  0  0  0  0
    3.7156    0.2216    0.0000 H   0  0  0  0  0  0  0  0  0  0  0  0
    3.1639    0.9030    0.0000 H   0  0  0  0  0  0  0  0  0  0  0  0
    2.4824    0.3512    0.0000 H   0  0  0  0  0  0  0  0  0  0  0  0
    4.5293    0.5370    0.0000 H   0  0  0  0  0  0  0  0  0  0  0  0
   11.0384   -2.1694    0.0000 H   0  0  0  0  0  0  0  0  0  0  0  0
   10.2587   -2.0036    0.0000 H   0  0  0  0  0  0  0  0  0  0  0  0
   10.8044   -3.6019    0.0000 H   0  0  0  0  0  0  0  0  0  0  0  0
   11.5840   -3.7676    0.0000 H   0  0  0  0  0  0  0  0  0  0  0  0
    7.2903   -1.2244    0.0000 H   0  0  0  0  0  0  0  0  0  0  0  0
    6.9747   -0.2862    0.0000 H   0  0  0  0  0  0  0  0  0  0  0  0
   12.7326   -2.5295    0.0000 H   0  0  0  0  0  0  0  0  0  0  0  0
   11.9529   -2.3638    0.0000 H   0  0  0  0  0  0  0  0  0  0  0  0
    5.4128   -3.3096    0.0000 H   0  0  0  0  0  0  0  0  0  0  0  0
    8.1574   -3.8930    0.0000 H   0  0  0  0  0  0  0  0  0  0  0  0
    6.6167   -4.3936    0.0000 H   0  0  0  0  0  0  0  0  0  0  0  0
    8.7844   -3.7093    0.0000 H   0  0  0  0  0  0  0  0  0  0  0  0
    9.2619   -4.4447    0.0000 H   0  0  0  0  0  0  0  0  0  0  0  0
    9.9973   -3.9671    0.0000 H   0  0  0  0  0  0  0  0  0  0  0  0
    7.8407    1.2138    0.0000 H   0  0  0  0  0  0  0  0  0  0  0  0
   14.1298   -3.8610    0.0000 H   0  0  0  0  0  0  0  0  0  0  0  0
   14.5279   -3.0797    0.0000 H   0  0  0  0  0  0  0  0  0  0  0  0
   13.7466   -2.6816    0.0000 H   0  0  0  0  0  0  0  0  0  0  0  0
   12.1728   -4.4296    0.0000 H   0  0  0  0  0  0  0  0  0  0  0  0
   12.6503   -5.1649    0.0000 H   0  0  0  0  0  0  0  0  0  0  0  0
   13.3857   -4.6874    0.0000 H   0  0  0  0  0  0  0  0  0  0  0  0
    5.9008    2.7138    0.0000 H   0  0  0  0  0  0  0  0  0  0  0  0
    9.0566    1.8692    0.0000 H   0  0  0  0  0  0  0  0  0  0  0  0
    7.3038    5.1438    0.0000 H   0  0  0  0  0  0  0  0  0  0  0  0
    5.9008    4.3338    0.0000 H   0  0  0  0  0  0  0  0  0  0  0  0
    9.0566    5.1784    0.0000 H   0  0  0  0  0  0  0  0  0  0  0  0
   10.5055    2.6909    0.0000 H   0  0  0  0  0  0  0  0  0  0  0  0
   10.5055    4.3567    0.0000 H   0  0  0  0  0  0  0  0  0  0  0  0
  1 23  2  0  0  0  0
  2 26  2  0  0  0  0
  3  4  1  0  0  0  0
  3 15  1  0  0  0  0
  3 16  1  0  0  0  0
  4 10  2  0  0  0  0
  5 15  1  0  0  0  0
  5 26  1  0  0  0  0
  5 55  1  0  0  0  0
  6 17  1  0  0  0  0
  6 23  1  0  0  0  0
  6 27  1  0  0  0  0
  7 21  1  0  0  0  0
  7 28  1  0  0  0  0
  7 29  1  0  0  0  0
  8 26  1  0  0  0  0
  8 30  1  0  0  0  0
  8 64  1  0  0  0  0
  9 10  1  0  0  0  0
  9 11  1  0  0  0  0
  9 12  1  0  0  0  0
  9 13  1  0  0  0  0
 10 14  1  0  0  0  0
 11 40  1  0  0  0  0
 11 41  1  0  0  0  0
 11 42  1  0  0  0  0
 12 43  1  0  0  0  0
 12 44  1  0  0  0  0
 12 45  1  0  0  0  0
 13 46  1  0  0  0  0
 13 47  1  0  0  0  0
 13 48  1  0  0  0  0
 14 15  2  0  0  0  0
 14 49  1  0  0  0  0
 16 19  1  0  0  0  0
 16 22  2  0  0  0  0
 17 18  1  0  0  0  0
 17 50  1  0  0  0  0
 17 51  1  0  0  0  0
 18 21  1  0  0  0  0
 18 52  1  0  0  0  0
 18 53  1  0  0  0  0
 19 20  2  0  0  0  0
 19 54  1  0  0  0  0
 20 23  1  0  0  0  0
 20 24  1  0  0  0  0
 21 56  1  0  0  0  0
 21 57  1  0  0  0  0
 22 25  1  0  0  0  0
 22 58  1  0  0  0  0
 24 25  2  0  0  0  0
 24 59  1  0  0  0  0
 25 60  1  0  0  0  0
 27 61  1  0  0  0  0
 27 62  1  0  0  0  0
 27 63  1  0  0  0  0
 28 65  1  0  0  0  0
 28 66  1  0  0  0  0
 28 67  1  0  0  0  0
 29 68  1  0  0  0  0
 29 69  1  0  0  0  0
 29 70  1  0  0  0  0
 30 31  1  0  0  0  0
 30 33  2  0  0  0  0
 31 32  1  0  0  0  0
 31 34  2  0  0  0  0
 32 35  1  0  0  0  0
 32 37  2  0  0  0  0
 33 36  1  0  0  0  0
 33 71  1  0  0  0  0
 34 38  1  0  0  0  0
 34 72  1  0  0  0  0
 35 36  2  0  0  0  0
 35 73  1  0  0  0  0
 36 74  1  0  0  0  0
 37 39  1  0  0  0  0
 37 75  1  0  0  0  0
 38 39  2  0  0  0  0
 38 76  1  0  0  0  0
 39 77  1  0  0  0  0
M  END
> <PUBCHEM_COMPOUND_CID>
49830653

> <PUBCHEM_COMPOUND_CANONICALIZED>
1

> <PUBCHEM_CACTVS_COMPLEXITY>
813

> <PUBCHEM_CACTVS_HBOND_ACCEPTOR>
4

> <PUBCHEM_CACTVS_HBOND_DONOR>
2

> <PUBCHEM_CACTVS_ROTATABLE_BOND>
9

> <PUBCHEM_CACTVS_SUBSKEYS>
AAADcfB7sAAAAAAAAAAAAAAAAAAAAWAAAAAwYMAAAAAAAADB1AAAHgAYAAAADgjBngQz8NPIAACqAydydACSBCMlAgAdmCE4ZNiIIHLA1dGEpQh4nwLIyacciICPgAAAQAASAAAAAACAACQAAAAAAAAAAA==

> <PUBCHEM_IUPAC_OPENEYE_NAME>
3-[3-tert-butyl-5-(1-naphthylcarbamoylamino)pyrazol-1-yl]-N-[3-(dimethylamino)propyl]-N-methyl-benzamide

> <PUBCHEM_IUPAC_CAS_NAME>
3-[3-tert-butyl-5-[[(1-naphthalenylamino)-oxomethyl]amino]-1-pyrazolyl]-N-[3-(dimethylamino)propyl]-N-methylbenzamide

> <PUBCHEM_IUPAC_NAME_MARKUP>
3-[3-<I>tert</I>-butyl-5-(naphthalen-1-ylcarbamoylamino)pyrazol-1-yl]-<I>N</I>-[3-(dimethylamino)propyl]-<I>N</I>-methylbenzamide

> <PUBCHEM_IUPAC_NAME>
3-[3-tert-butyl-5-(naphthalen-1-ylcarbamoylamino)pyrazol-1-yl]-N-[3-(dimethylamino)propyl]-N-methylbenzamide

> <PUBCHEM_IUPAC_SYSTEMATIC_NAME>
3-[3-tert-butyl-5-(naphthalen-1-ylcarbamoylamino)pyrazol-1-yl]-N-[3-(dimethylamino)propyl]-N-methyl-benzamide

> <PUBCHEM_IUPAC_TRADITIONAL_NAME>
3-[3-tert-butyl-5-(1-naphthylcarbamoylamino)pyrazol-1-yl]-N-[3-(dimethylamino)propyl]-N-methyl-benzamide

> <PUBCHEM_IUPAC_INCHI>
InChI=1S/C31H38N6O2/c1-31(2,3)27-21-28(33-30(39)32-26-17-10-13-22-12-7-8-16-25(22)26)37(34-27)24-15-9-14-23(20-24)29(38)36(6)19-11-18-35(4)5/h7-10,12-17,20-21H,11,18-19H2,1-6H3,(H2,32,33,39)

> <PUBCHEM_IUPAC_INCHIKEY>
KDLLVDABAMKMLD-UHFFFAOYSA-N

> <PUBCHEM_XLOGP3_AA>
5.6

> <PUBCHEM_EXACT_MASS>
526.30562448

> <PUBCHEM_MOLECULAR_FORMULA>
C31H38N6O2

> <PUBCHEM_MOLECULAR_WEIGHT>
526.7

> <PUBCHEM_SMILES>
CC(C)(C)C1=NN(C(=C1)NC(=O)NC2=CC=CC3=CC=CC=C32)C4=CC=CC(=C4)C(=O)N(C)CCCN(C)C

> <PUBCHEM_OPENEYE_CAN_SMILES>
CC(C)(C)C1=NN(C(=C1)NC(=O)NC2=CC=CC3=CC=CC=C32)C4=CC=CC(=C4)C(=O)N(C)CCCN(C)C

> <PUBCHEM_OPENEYE_ISO_SMILES>
CC(C)(C)C1=NN(C(=C1)NC(=O)NC2=CC=CC3=CC=CC=C32)C4=CC=CC(=C4)C(=O)N(C)CCCN(C)C

> <PUBCHEM_CACTVS_TPSA>
82.5

> <PUBCHEM_MONOISOTOPIC_WEIGHT>
526.30562448

> <PUBCHEM_TOTAL_CHARGE>
0

> <PUBCHEM_HEAVY_ATOM_COUNT>
39

> <PUBCHEM_ATOM_DEF_STEREO_COUNT>
0

> <PUBCHEM_ATOM_UDEF_STEREO_COUNT>
0

> <PUBCHEM_BOND_DEF_STEREO_COUNT>
0

> <PUBCHEM_BOND_UDEF_STEREO_COUNT>
0

> <PUBCHEM_ISOTOPIC_ATOM_COUNT>
0

> <PUBCHEM_COMPONENT_COUNT>
1

> <PUBCHEM_CACTVS_TAUTO_COUNT>
-1

> <PUBCHEM_COORDINATE_TYPE>
1
5
255

> <PUBCHEM_BONDANNOTATIONS>
10  14  8
14  15  8
16  19  8
16  22  8
19  20  8
20  24  8
22  25  8
24  25  8
3  15  8
3  4  8
30  31  8
30  33  8
31  32  8
31  34  8
32  35  8
32  37  8
33  36  8
34  38  8
35  36  8
37  39  8
38  39  8
4  10  8

$$$$
