10216627
  -OEChem-03202505562D

 52 56  0     1  0  0  0  0  0999 V2000
   11.7930    1.8826    0.0000 Cl  0  0  0  0  0  0  0  0  0  0  0  0
    8.3289   -0.1174    0.0000 O   0  0  0  0  0  0  0  0  0  0  0  0
    3.7899   -1.3153    0.0000 N   0  0  0  0  0  0  0  0  0  0  0  0
    6.5968   -1.1174    0.0000 N   0  0  0  0  0  0  0  0  0  0  0  0
   10.0610    1.8826    0.0000 N   0  0  0  0  0  0  0  0  0  0  0  0
   15.3251   -1.1382    0.0000 N   0  0  0  0  0  0  0  0  0  0  0  0
    5.7308    0.3826    0.0000 C   0  0  0  0  0  0  0  0  0  0  0  0
    6.5968   -0.1174    0.0000 C   0  0  1  0  0  0  0  0  0  0  0  0
    4.8648   -0.1174    0.0000 C   0  0  0  0  0  0  0  0  0  0  0  0
    3.9570    0.2877    0.0000 C   0  0  0  0  0  0  0  0  0  0  0  0
    7.4629    0.3826    0.0000 C   0  0  0  0  0  0  0  0  0  0  0  0
    3.2892   -0.4566    0.0000 C   0  0  0  0  0  0  0  0  0  0  0  0
    4.7617   -1.1061    0.0000 C   0  0  0  0  0  0  0  0  0  0  0  0
    3.6464    1.2382    0.0000 C   0  0  0  0  0  0  0  0  0  0  0  0
    2.3107   -0.2504    0.0000 C   0  0  0  0  0  0  0  0  0  0  0  0
    2.6678    1.4444    0.0000 C   0  0  0  0  0  0  0  0  0  0  0  0
    2.0000    0.7001    0.0000 C   0  0  0  0  0  0  0  0  0  0  0  0
    9.1949    0.3826    0.0000 C   0  0  0  0  0  0  0  0  0  0  0  0
   10.9270    0.3826    0.0000 C   0  0  0  0  0  0  0  0  0  0  0  0
   11.7930   -0.1174    0.0000 C   0  0  0  0  0  0  0  0  0  0  0  0
   10.0610   -0.1174    0.0000 C   0  0  0  0  0  0  0  0  0  0  0  0
   13.5251   -0.1174    0.0000 C   0  0  0  0  0  0  0  0  0  0  0  0
   12.6590    0.3826    0.0000 C   0  0  0  0  0  0  0  0  0  0  0  0
   13.5251   -1.1174    0.0000 C   0  0  0  0  0  0  0  0  0  0  0  0
   11.7930   -1.1174    0.0000 C   0  0  0  0  0  0  0  0  0  0  0  0
    9.1949    1.3826    0.0000 C   0  0  0  0  0  0  0  0  0  0  0  0
   12.6590   -1.6174    0.0000 C   0  0  0  0  0  0  0  0  0  0  0  0
   10.9270    1.3826    0.0000 C   0  0  0  0  0  0  0  0  0  0  0  0
   14.4190    0.4173    0.0000 C   0  0  0  0  0  0  0  0  0  0  0  0
   14.4190   -1.6521    0.0000 C   0  0  0  0  0  0  0  0  0  0  0  0
   15.3251   -0.0966    0.0000 C   0  0  0  0  0  0  0  0  0  0  0  0
    6.1293    0.8575    0.0000 H   0  0  0  0  0  0  0  0  0  0  0  0
    5.3323    0.8575    0.0000 H   0  0  0  0  0  0  0  0  0  0  0  0
    7.1338   -0.4274    0.0000 H   0  0  0  0  0  0  0  0  0  0  0  0
    7.8614    0.8575    0.0000 H   0  0  0  0  0  0  0  0  0  0  0  0
    7.0644    0.8575    0.0000 H   0  0  0  0  0  0  0  0  0  0  0  0
    5.2232   -1.5202    0.0000 H   0  0  0  0  0  0  0  0  0  0  0  0
    3.5397   -1.8826    0.0000 H   0  0  0  0  0  0  0  0  0  0  0  0
    4.0604    1.6997    0.0000 H   0  0  0  0  0  0  0  0  0  0  0  0
    7.1338   -1.4274    0.0000 H   0  0  0  0  0  0  0  0  0  0  0  0
    6.0599   -1.4274    0.0000 H   0  0  0  0  0  0  0  0  0  0  0  0
    1.8966   -0.7118    0.0000 H   0  0  0  0  0  0  0  0  0  0  0  0
    2.4752    2.0338    0.0000 H   0  0  0  0  0  0  0  0  0  0  0  0
    1.3933    0.8280    0.0000 H   0  0  0  0  0  0  0  0  0  0  0  0
   10.0610   -0.7374    0.0000 H   0  0  0  0  0  0  0  0  0  0  0  0
   12.6590    1.0026    0.0000 H   0  0  0  0  0  0  0  0  0  0  0  0
   11.2561   -1.4274    0.0000 H   0  0  0  0  0  0  0  0  0  0  0  0
    8.6580    1.6926    0.0000 H   0  0  0  0  0  0  0  0  0  0  0  0
   12.6590   -2.2374    0.0000 H   0  0  0  0  0  0  0  0  0  0  0  0
   14.4118    1.0372    0.0000 H   0  0  0  0  0  0  0  0  0  0  0  0
   14.4118   -2.2720    0.0000 H   0  0  0  0  0  0  0  0  0  0  0  0
   15.8608    0.2155    0.0000 H   0  0  0  0  0  0  0  0  0  0  0  0
  1 28  1  0  0  0  0
  2 11  1  0  0  0  0
  2 18  1  0  0  0  0
  3 12  1  0  0  0  0
  3 13  1  0  0  0  0
  3 38  1  0  0  0  0
  8  4  1  1  0  0  0
  4 40  1  0  0  0  0
  4 41  1  0  0  0  0
  5 26  2  0  0  0  0
  5 28  1  0  0  0  0
  6 30  2  0  0  0  0
  6 31  1  0  0  0  0
  7  8  1  0  0  0  0
  7  9  1  0  0  0  0
  7 32  1  0  0  0  0
  7 33  1  0  0  0  0
  8 11  1  0  0  0  0
  8 34  1  0  0  0  0
  9 10  1  0  0  0  0
  9 13  2  0  0  0  0
 10 12  1  0  0  0  0
 10 14  2  0  0  0  0
 11 35  1  0  0  0  0
 11 36  1  0  0  0  0
 12 15  2  0  0  0  0
 13 37  1  0  0  0  0
 14 16  1  0  0  0  0
 14 39  1  0  0  0  0
 15 17  1  0  0  0  0
 15 42  1  0  0  0  0
 16 17  2  0  0  0  0
 16 43  1  0  0  0  0
 17 44  1  0  0  0  0
 18 21  2  0  0  0  0
 18 26  1  0  0  0  0
 19 20  1  0  0  0  0
 19 21  1  0  0  0  0
 19 28  2  0  0  0  0
 20 23  2  0  0  0  0
 20 25  1  0  0  0  0
 21 45  1  0  0  0  0
 22 23  1  0  0  0  0
 22 24  2  0  0  0  0
 22 29  1  0  0  0  0
 23 46  1  0  0  0  0
 24 27  1  0  0  0  0
 24 30  1  0  0  0  0
 25 27  2  0  0  0  0
 25 47  1  0  0  0  0
 26 48  1  0  0  0  0
 27 49  1  0  0  0  0
 29 31  2  0  0  0  0
 29 50  1  0  0  0  0
 30 51  1  0  0  0  0
 31 52  1  0  0  0  0
M  END
> <PUBCHEM_COMPOUND_CID>
10216627

> <PUBCHEM_COMPOUND_CANONICALIZED>
1

> <PUBCHEM_CACTVS_COMPLEXITY>
580

> <PUBCHEM_CACTVS_HBOND_ACCEPTOR>
4

> <PUBCHEM_CACTVS_HBOND_DONOR>
2

> <PUBCHEM_CACTVS_ROTATABLE_BOND>
6

> <PUBCHEM_CACTVS_SUBSKEYS>
AAADceB7oAAEAAAAAAAAAAAAAAAAAWAAAAA8eIEAAAAAAFix/gAAHgIQAAAADC7hniY8xvLJlACgAzRnRASCiCAxZiAI2aA/bpgOJuLFs5uHOCjk0BHY6Aew0PIOwAACAAASAACAAAQAACQAAAAAAAAAAA==

> <PUBCHEM_IUPAC_OPENEYE_NAME>
(2S)-1-[[6-chloro-5-(6-isoquinolyl)-3-pyridyl]oxy]-3-(1H-indol-3-yl)propan-2-amine

> <PUBCHEM_IUPAC_CAS_NAME>
(2S)-1-[[6-chloro-5-(6-isoquinolinyl)-3-pyridinyl]oxy]-3-(1H-indol-3-yl)-2-propanamine

> <PUBCHEM_IUPAC_NAME_MARKUP>
(2<I>S</I>)-1-(6-chloro-5-isoquinolin-6-ylpyridin-3-yl)oxy-3-(1<I>H</I>-indol-3-yl)propan-2-amine

> <PUBCHEM_IUPAC_NAME>
(2S)-1-(6-chloro-5-isoquinolin-6-ylpyridin-3-yl)oxy-3-(1H-indol-3-yl)propan-2-amine

> <PUBCHEM_IUPAC_SYSTEMATIC_NAME>
(2S)-1-(6-chloranyl-5-isoquinolin-6-yl-pyridin-3-yl)oxy-3-(1H-indol-3-yl)propan-2-amine

> <PUBCHEM_IUPAC_TRADITIONAL_NAME>
[(1S)-1-[[6-chloro-5-(6-isoquinolyl)-3-pyridyl]oxymethyl]-2-(1H-indol-3-yl)ethyl]amine

> <PUBCHEM_IUPAC_INCHI>
InChI=1S/C25H21ClN4O/c26-25-23(17-5-6-18-12-28-8-7-16(18)9-17)11-21(14-30-25)31-15-20(27)10-19-13-29-24-4-2-1-3-22(19)24/h1-9,11-14,20,29H,10,15,27H2/t20-/m0/s1

> <PUBCHEM_IUPAC_INCHIKEY>
KLSYPIQWMFSSJW-FQEVSTJZSA-N

> <PUBCHEM_XLOGP3_AA>
4.8

> <PUBCHEM_EXACT_MASS>
428.1403890

> <PUBCHEM_MOLECULAR_FORMULA>
C25H21ClN4O

> <PUBCHEM_MOLECULAR_WEIGHT>
428.9

> <PUBCHEM_SMILES>
C1=CC=C2C(=C1)C(=CN2)C[C@@H](COC3=CC(=C(N=C3)Cl)C4=CC5=C(C=C4)C=NC=C5)N

> <PUBCHEM_OPENEYE_CAN_SMILES>
C1=CC=C2C(=C1)C(=CN2)CC(COC3=CC(=C(N=C3)Cl)C4=CC5=C(C=C4)C=NC=C5)N

> <PUBCHEM_OPENEYE_ISO_SMILES>
C1=CC=C2C(=C1)C(=CN2)C[C@@H](COC3=CC(=C(N=C3)Cl)C4=CC5=C(C=C4)C=NC=C5)N

> <PUBCHEM_CACTVS_TPSA>
76.8

> <PUBCHEM_MONOISOTOPIC_WEIGHT>
428.1403890

> <PUBCHEM_TOTAL_CHARGE>
0

> <PUBCHEM_HEAVY_ATOM_COUNT>
31

> <PUBCHEM_ATOM_DEF_STEREO_COUNT>
1

> <PUBCHEM_ATOM_UDEF_STEREO_COUNT>
0

> <PUBCHEM_BOND_DEF_STEREO_COUNT>
0

> <PUBCHEM_BOND_UDEF_STEREO_COUNT>
0

> <PUBCHEM_ISOTOPIC_ATOM_COUNT>
0

> <PUBCHEM_COMPONENT_COUNT>
1

> <PUBCHEM_CACTVS_TAUTO_COUNT>
-1

> <PUBCHEM_COORDINATE_TYPE>
1
5
255

> <PUBCHEM_BONDANNOTATIONS>
10  12  8
10  14  8
12  15  8
14  16  8
15  17  8
16  17  8
18  21  8
18  26  8
19  21  8
19  28  8
20  23  8
20  25  8
22  23  8
22  24  8
22  29  8
24  27  8
24  30  8
25  27  8
29  31  8
3  12  8
3  13  8
8  4  5
5  26  8
5  28  8
6  30  8
6  31  8
9  10  8
9  13  8

$$$$
