49830785
  -OEChem-03202503022D

 27 29  0     0  0  0  0  0  0999 V2000
    2.8660    3.1970    0.0000 Br  0  0  0  0  0  0  0  0  0  0  0  0
    4.6783   -2.6077    0.0000 N   0  0  0  0  0  0  0  0  0  0  0  0
    5.2619   -1.8030    0.0000 N   0  0  0  0  0  0  0  0  0  0  0  0
    4.9889   -0.0477    0.0000 N   0  0  0  0  0  0  0  0  0  0  0  0
    3.7320   -1.3030    0.0000 C   0  0  0  0  0  0  0  0  0  0  0  0
    2.8660   -0.8030    0.0000 C   0  0  0  0  0  0  0  0  0  0  0  0
    3.7320   -2.3030    0.0000 C   0  0  0  0  0  0  0  0  0  0  0  0
    2.8660    0.1970    0.0000 C   0  0  0  0  0  0  0  0  0  0  0  0
    4.6783   -0.9982    0.0000 C   0  0  0  0  0  0  0  0  0  0  0  0
    2.0000   -1.3030    0.0000 C   0  0  0  0  0  0  0  0  0  0  0  0
    2.8660   -2.8030    0.0000 C   0  0  0  0  0  0  0  0  0  0  0  0
    2.0000   -2.3030    0.0000 C   0  0  0  0  0  0  0  0  0  0  0  0
    3.7320    0.6970    0.0000 C   0  0  0  0  0  0  0  0  0  0  0  0
    2.0000    0.6970    0.0000 C   0  0  0  0  0  0  0  0  0  0  0  0
    3.7320    1.6970    0.0000 C   0  0  0  0  0  0  0  0  0  0  0  0
    2.0000    1.6970    0.0000 C   0  0  0  0  0  0  0  0  0  0  0  0
    2.8660    2.1970    0.0000 C   0  0  0  0  0  0  0  0  0  0  0  0
    1.4631   -0.9930    0.0000 H   0  0  0  0  0  0  0  0  0  0  0  0
    2.8660   -3.4230    0.0000 H   0  0  0  0  0  0  0  0  0  0  0  0
    4.8709   -3.1970    0.0000 H   0  0  0  0  0  0  0  0  0  0  0  0
    1.4631   -2.6130    0.0000 H   0  0  0  0  0  0  0  0  0  0  0  0
    4.2690    0.3870    0.0000 H   0  0  0  0  0  0  0  0  0  0  0  0
    1.4631    0.3870    0.0000 H   0  0  0  0  0  0  0  0  0  0  0  0
    4.2690    2.0070    0.0000 H   0  0  0  0  0  0  0  0  0  0  0  0
    1.4631    2.0070    0.0000 H   0  0  0  0  0  0  0  0  0  0  0  0
    5.5956    0.0801    0.0000 H   0  0  0  0  0  0  0  0  0  0  0  0
    4.5749    0.4137    0.0000 H   0  0  0  0  0  0  0  0  0  0  0  0
  1 17  1  0  0  0  0
  2  3  1  0  0  0  0
  2  7  1  0  0  0  0
  2 20  1  0  0  0  0
  3  9  2  0  0  0  0
  4  9  1  0  0  0  0
  4 26  1  0  0  0  0
  4 27  1  0  0  0  0
  5  6  2  0  0  0  0
  5  7  1  0  0  0  0
  5  9  1  0  0  0  0
  6  8  1  0  0  0  0
  6 10  1  0  0  0  0
  7 11  2  0  0  0  0
  8 13  2  0  0  0  0
  8 14  1  0  0  0  0
 10 12  2  0  0  0  0
 10 18  1  0  0  0  0
 11 12  1  0  0  0  0
 11 19  1  0  0  0  0
 12 21  1  0  0  0  0
 13 15  1  0  0  0  0
 13 22  1  0  0  0  0
 14 16  2  0  0  0  0
 14 23  1  0  0  0  0
 15 17  2  0  0  0  0
 15 24  1  0  0  0  0
 16 17  1  0  0  0  0
 16 25  1  0  0  0  0
M  END
> <PUBCHEM_COMPOUND_CID>
49830785

> <PUBCHEM_COMPOUND_CANONICALIZED>
1

> <PUBCHEM_CACTVS_COMPLEXITY>
265

> <PUBCHEM_CACTVS_HBOND_ACCEPTOR>
2

> <PUBCHEM_CACTVS_HBOND_DONOR>
2

> <PUBCHEM_CACTVS_ROTATABLE_BOND>
1

> <PUBCHEM_CACTVS_SUBSKEYS>
AAADccBzAAAAEAAAAAAAAAAAAAAAAWAAAAAwYAAAAAAAAFgB9AAAHABYAAABrAiBHgAx8PBjAACiAyZiYACSBAIgAgQcuSAwZLgIIKKA0dGApABwmAAIyhcQgMAOggAAQAASAAAEAACAACQAAAAAAAAAAA==

> <PUBCHEM_IUPAC_OPENEYE_NAME>
4-(4-bromophenyl)-1H-indazol-3-amine

> <PUBCHEM_IUPAC_CAS_NAME>
4-(4-bromophenyl)-1H-indazol-3-amine

> <PUBCHEM_IUPAC_NAME_MARKUP>
4-(4-bromophenyl)-1<I>H</I>-indazol-3-amine

> <PUBCHEM_IUPAC_NAME>
4-(4-bromophenyl)-1H-indazol-3-amine

> <PUBCHEM_IUPAC_SYSTEMATIC_NAME>
4-(4-bromophenyl)-1H-indazol-3-amine

> <PUBCHEM_IUPAC_TRADITIONAL_NAME>
[4-(4-bromophenyl)-1H-indazol-3-yl]amine

> <PUBCHEM_IUPAC_INCHI>
InChI=1S/C13H10BrN3/c14-9-6-4-8(5-7-9)10-2-1-3-11-12(10)13(15)17-16-11/h1-7H,(H3,15,16,17)

> <PUBCHEM_IUPAC_INCHIKEY>
KIOLXAWQJUDVMS-UHFFFAOYSA-N

> <PUBCHEM_XLOGP3_AA>
3.5

> <PUBCHEM_EXACT_MASS>
287.00581

> <PUBCHEM_MOLECULAR_FORMULA>
C13H10BrN3

> <PUBCHEM_MOLECULAR_WEIGHT>
288.14

> <PUBCHEM_SMILES>
C1=CC(=C2C(=C1)NN=C2N)C3=CC=C(C=C3)Br

> <PUBCHEM_OPENEYE_CAN_SMILES>
C1=CC(=C2C(=C1)NN=C2N)C3=CC=C(C=C3)Br

> <PUBCHEM_OPENEYE_ISO_SMILES>
C1=CC(=C2C(=C1)NN=C2N)C3=CC=C(C=C3)Br

> <PUBCHEM_CACTVS_TPSA>
54.7

> <PUBCHEM_MONOISOTOPIC_WEIGHT>
287.00581

> <PUBCHEM_TOTAL_CHARGE>
0

> <PUBCHEM_HEAVY_ATOM_COUNT>
17

> <PUBCHEM_ATOM_DEF_STEREO_COUNT>
0

> <PUBCHEM_ATOM_UDEF_STEREO_COUNT>
0

> <PUBCHEM_BOND_DEF_STEREO_COUNT>
0

> <PUBCHEM_BOND_UDEF_STEREO_COUNT>
0

> <PUBCHEM_ISOTOPIC_ATOM_COUNT>
0

> <PUBCHEM_COMPONENT_COUNT>
1

> <PUBCHEM_CACTVS_TAUTO_COUNT>
-1

> <PUBCHEM_COORDINATE_TYPE>
1
5
255

> <PUBCHEM_BONDANNOTATIONS>
10  12  8
11  12  8
13  15  8
14  16  8
15  17  8
16  17  8
2  3  8
2  7  8
3  9  8
5  6  8
5  7  8
5  9  8
6  10  8
7  11  8
8  13  8
8  14  8

$$$$
