10389862
  -OEChem-03202505272D

 64 69  0     0  0  0  0  0  0999 V2000
   13.2899   -1.9619    0.0000 O   0  0  0  0  0  0  0  0  0  0  0  0
    6.6284    0.3418    0.0000 O   0  0  0  0  0  0  0  0  0  0  0  0
    9.5639    0.9605    0.0000 N   0  0  0  0  0  0  0  0  0  0  0  0
    9.5639   -1.3737    0.0000 N   0  0  0  0  0  0  0  0  0  0  0  0
   13.5628   -0.2066    0.0000 N   0  0  0  0  0  0  0  0  0  0  0  0
    6.2712    2.0366    0.0000 N   0  0  0  0  0  0  0  0  0  0  0  0
    2.9785    3.1128    0.0000 N   0  0  0  0  0  0  0  0  0  0  0  0
   10.3009    0.2934    0.0000 C   0  0  0  0  0  0  0  0  0  0  0  0
   11.1669    0.7934    0.0000 C   0  0  0  0  0  0  0  0  0  0  0  0
   12.0330    0.2934    0.0000 C   0  0  0  0  0  0  0  0  0  0  0  0
   10.3009   -0.7066    0.0000 C   0  0  0  0  0  0  0  0  0  0  0  0
   11.1669   -1.2066    0.0000 C   0  0  0  0  0  0  0  0  0  0  0  0
   12.0330   -0.7066    0.0000 C   0  0  0  0  0  0  0  0  0  0  0  0
   10.9577    1.7652    0.0000 C   0  0  0  0  0  0  0  0  0  0  0  0
    9.9690    1.8683    0.0000 C   0  0  0  0  0  0  0  0  0  0  0  0
   12.9792    0.5981    0.0000 C   0  0  0  0  0  0  0  0  0  0  0  0
   10.9577   -2.1784    0.0000 C   0  0  0  0  0  0  0  0  0  0  0  0
    8.5854    0.7543    0.0000 C   0  0  0  0  0  0  0  0  0  0  0  0
    9.9690   -2.2815    0.0000 C   0  0  0  0  0  0  0  0  0  0  0  0
   12.9792   -1.0113    0.0000 C   0  0  0  0  0  0  0  0  0  0  0  0
   11.5785    2.5940    0.0000 C   0  0  0  0  0  0  0  0  0  0  0  0
    9.5325    2.8072    0.0000 C   0  0  0  0  0  0  0  0  0  0  0  0
    7.9176    1.4986    0.0000 C   0  0  0  0  0  0  0  0  0  0  0  0
   11.5785   -3.0072    0.0000 C   0  0  0  0  0  0  0  0  0  0  0  0
    9.5325   -3.2204    0.0000 C   0  0  0  0  0  0  0  0  0  0  0  0
   11.1638    3.5428    0.0000 C   0  0  0  0  0  0  0  0  0  0  0  0
   10.1339    3.6501    0.0000 C   0  0  0  0  0  0  0  0  0  0  0  0
   11.1638   -3.9560    0.0000 C   0  0  0  0  0  0  0  0  0  0  0  0
   10.1339   -4.0633    0.0000 C   0  0  0  0  0  0  0  0  0  0  0  0
    6.9390    1.2923    0.0000 C   0  0  0  0  0  0  0  0  0  0  0  0
    5.2927    1.8304    0.0000 C   0  0  0  0  0  0  0  0  0  0  0  0
    4.6249    2.5747    0.0000 C   0  0  0  0  0  0  0  0  0  0  0  0
    3.6464    2.3685    0.0000 C   0  0  0  0  0  0  0  0  0  0  0  0
    2.0000    2.9066    0.0000 C   0  0  0  0  0  0  0  0  0  0  0  0
    3.2892    4.0633    0.0000 C   0  0  0  0  0  0  0  0  0  0  0  0
   13.5166    0.9074    0.0000 H   0  0  0  0  0  0  0  0  0  0  0  0
   12.7282    1.1650    0.0000 H   0  0  0  0  0  0  0  0  0  0  0  0
    8.0590    0.4266    0.0000 H   0  0  0  0  0  0  0  0  0  0  0  0
    8.8167    0.1790    0.0000 H   0  0  0  0  0  0  0  0  0  0  0  0
    8.9572   -1.2458    0.0000 H   0  0  0  0  0  0  0  0  0  0  0  0
   14.1828   -0.2066    0.0000 H   0  0  0  0  0  0  0  0  0  0  0  0
   12.1944    2.5226    0.0000 H   0  0  0  0  0  0  0  0  0  0  0  0
    8.9152    2.8644    0.0000 H   0  0  0  0  0  0  0  0  0  0  0  0
    8.4439    1.8262    0.0000 H   0  0  0  0  0  0  0  0  0  0  0  0
    7.6863    2.0738    0.0000 H   0  0  0  0  0  0  0  0  0  0  0  0
   12.1944   -2.9358    0.0000 H   0  0  0  0  0  0  0  0  0  0  0  0
    8.9152   -3.2776    0.0000 H   0  0  0  0  0  0  0  0  0  0  0  0
   11.5297    4.0433    0.0000 H   0  0  0  0  0  0  0  0  0  0  0  0
    9.8791    4.2153    0.0000 H   0  0  0  0  0  0  0  0  0  0  0  0
   11.5297   -4.4565    0.0000 H   0  0  0  0  0  0  0  0  0  0  0  0
    9.8791   -4.6285    0.0000 H   0  0  0  0  0  0  0  0  0  0  0  0
    6.4638    2.6260    0.0000 H   0  0  0  0  0  0  0  0  0  0  0  0
    4.7663    1.5028    0.0000 H   0  0  0  0  0  0  0  0  0  0  0  0
    5.5240    1.2552    0.0000 H   0  0  0  0  0  0  0  0  0  0  0  0
    5.1512    2.9024    0.0000 H   0  0  0  0  0  0  0  0  0  0  0  0
    4.3936    3.1500    0.0000 H   0  0  0  0  0  0  0  0  0  0  0  0
    3.1200    2.0409    0.0000 H   0  0  0  0  0  0  0  0  0  0  0  0
    3.8776    1.7932    0.0000 H   0  0  0  0  0  0  0  0  0  0  0  0
    1.8721    3.5133    0.0000 H   0  0  0  0  0  0  0  0  0  0  0  0
    1.3933    2.7787    0.0000 H   0  0  0  0  0  0  0  0  0  0  0  0
    2.1279    2.2999    0.0000 H   0  0  0  0  0  0  0  0  0  0  0  0
    3.8785    3.8707    0.0000 H   0  0  0  0  0  0  0  0  0  0  0  0
    3.4818    4.6527    0.0000 H   0  0  0  0  0  0  0  0  0  0  0  0
    2.6998    4.2559    0.0000 H   0  0  0  0  0  0  0  0  0  0  0  0
  1 20  2  0  0  0  0
  2 30  2  0  0  0  0
  3  8  1  0  0  0  0
  3 15  1  0  0  0  0
  3 18  1  0  0  0  0
  4 11  1  0  0  0  0
  4 19  1  0  0  0  0
  4 40  1  0  0  0  0
  5 16  1  0  0  0  0
  5 20  1  0  0  0  0
  5 41  1  0  0  0  0
  6 30  1  0  0  0  0
  6 31  1  0  0  0  0
  6 52  1  0  0  0  0
  7 33  1  0  0  0  0
  7 34  1  0  0  0  0
  7 35  1  0  0  0  0
  8  9  1  0  0  0  0
  8 11  2  0  0  0  0
  9 10  2  0  0  0  0
  9 14  1  0  0  0  0
 10 13  1  0  0  0  0
 10 16  1  0  0  0  0
 11 12  1  0  0  0  0
 12 13  2  0  0  0  0
 12 17  1  0  0  0  0
 13 20  1  0  0  0  0
 14 15  1  0  0  0  0
 14 21  2  0  0  0  0
 15 22  2  0  0  0  0
 16 36  1  0  0  0  0
 16 37  1  0  0  0  0
 17 19  1  0  0  0  0
 17 24  2  0  0  0  0
 18 23  1  0  0  0  0
 18 38  1  0  0  0  0
 18 39  1  0  0  0  0
 19 25  2  0  0  0  0
 21 26  1  0  0  0  0
 21 42  1  0  0  0  0
 22 27  1  0  0  0  0
 22 43  1  0  0  0  0
 23 30  1  0  0  0  0
 23 44  1  0  0  0  0
 23 45  1  0  0  0  0
 24 28  1  0  0  0  0
 24 46  1  0  0  0  0
 25 29  1  0  0  0  0
 25 47  1  0  0  0  0
 26 27  2  0  0  0  0
 26 48  1  0  0  0  0
 27 49  1  0  0  0  0
 28 29  2  0  0  0  0
 28 50  1  0  0  0  0
 29 51  1  0  0  0  0
 31 32  1  0  0  0  0
 31 53  1  0  0  0  0
 31 54  1  0  0  0  0
 32 33  1  0  0  0  0
 32 55  1  0  0  0  0
 32 56  1  0  0  0  0
 33 57  1  0  0  0  0
 33 58  1  0  0  0  0
 34 59  1  0  0  0  0
 34 60  1  0  0  0  0
 34 61  1  0  0  0  0
 35 62  1  0  0  0  0
 35 63  1  0  0  0  0
 35 64  1  0  0  0  0
M  END
> <PUBCHEM_COMPOUND_CID>
10389862

> <PUBCHEM_COMPOUND_CANONICALIZED>
1

> <PUBCHEM_CACTVS_COMPLEXITY>
804

> <PUBCHEM_CACTVS_HBOND_ACCEPTOR>
3

> <PUBCHEM_CACTVS_HBOND_DONOR>
3

> <PUBCHEM_CACTVS_ROTATABLE_BOND>
7

> <PUBCHEM_CACTVS_SUBSKEYS>
AAADceB7sAAAAAAAAAAAAAAAAAAAAWLFgAAwYMAAAAAAAFgB/gAAHgAQAAAADAjBngQywPPNkACoAyVyVACCgCQlEiAI2aE4dNgIYPrA1ZGUIQhglgDIyQccicCeyAACQAASACCQAASAACQAQAAAAAAAAA==

> <PUBCHEM_IUPAC_OPENEYE_NAME>
N-[3-(dimethylamino)propyl]-3-(14-oxo-3,13,23-triazahexacyclo[14.7.0.02,10.04,9.011,15.017,22]tricosa-1,4,6,8,10,15,17,19,21-nonaen-3-yl)propanamide

> <PUBCHEM_IUPAC_CAS_NAME>
N-[3-(dimethylamino)propyl]-3-(14-oxo-3,13,23-triazahexacyclo[14.7.0.02,10.04,9.011,15.017,22]tricosa-1,4,6,8,10,15,17,19,21-nonaen-3-yl)propanamide

> <PUBCHEM_IUPAC_NAME_MARKUP>
<I>N</I>-[3-(dimethylamino)propyl]-3-(14-oxo-3,13,23-triazahexacyclo[14.7.0.0<SUP>2,10</SUP>.0<SUP>4,9</SUP>.0<SUP>11,15</SUP>.0<SUP>17,22</SUP>]tricosa-1,4,6,8,10,15,17,19,21-nonaen-3-yl)propanamide

> <PUBCHEM_IUPAC_NAME>
N-[3-(dimethylamino)propyl]-3-(14-oxo-3,13,23-triazahexacyclo[14.7.0.02,10.04,9.011,15.017,22]tricosa-1,4,6,8,10,15,17,19,21-nonaen-3-yl)propanamide

> <PUBCHEM_IUPAC_SYSTEMATIC_NAME>
N-[3-(dimethylamino)propyl]-3-(14-oxidanylidene-3,13,23-triazahexacyclo[14.7.0.02,10.04,9.011,15.017,22]tricosa-1,4,6,8,10,15,17,19,21-nonaen-3-yl)propanamide

> <PUBCHEM_IUPAC_TRADITIONAL_NAME>
N-[3-(dimethylamino)propyl]-3-(14-keto-3,13,23-triazahexacyclo[14.7.0.02,10.04,9.011,15.017,22]tricosa-1,4,6,8,10,15,17,19,21-nonaen-3-yl)propionamide

> <PUBCHEM_IUPAC_INCHI>
InChI=1S/C28H29N5O2/c1-32(2)14-7-13-29-22(34)12-15-33-21-11-6-4-9-18(21)23-19-16-30-28(35)25(19)24-17-8-3-5-10-20(17)31-26(24)27(23)33/h3-6,8-11,31H,7,12-16H2,1-2H3,(H,29,34)(H,30,35)

> <PUBCHEM_IUPAC_INCHIKEY>
HPCPUHOULFPBCQ-UHFFFAOYSA-N

> <PUBCHEM_XLOGP3_AA>
3.2

> <PUBCHEM_EXACT_MASS>
467.23212518

> <PUBCHEM_MOLECULAR_FORMULA>
C28H29N5O2

> <PUBCHEM_MOLECULAR_WEIGHT>
467.6

> <PUBCHEM_SMILES>
CN(C)CCCNC(=O)CCN1C2=CC=CC=C2C3=C4CNC(=O)C4=C5C6=CC=CC=C6NC5=C31

> <PUBCHEM_OPENEYE_CAN_SMILES>
CN(C)CCCNC(=O)CCN1C2=CC=CC=C2C3=C4CNC(=O)C4=C5C6=CC=CC=C6NC5=C31

> <PUBCHEM_OPENEYE_ISO_SMILES>
CN(C)CCCNC(=O)CCN1C2=CC=CC=C2C3=C4CNC(=O)C4=C5C6=CC=CC=C6NC5=C31

> <PUBCHEM_CACTVS_TPSA>
82.2

> <PUBCHEM_MONOISOTOPIC_WEIGHT>
467.23212518

> <PUBCHEM_TOTAL_CHARGE>
0

> <PUBCHEM_HEAVY_ATOM_COUNT>
35

> <PUBCHEM_ATOM_DEF_STEREO_COUNT>
0

> <PUBCHEM_ATOM_UDEF_STEREO_COUNT>
0

> <PUBCHEM_BOND_DEF_STEREO_COUNT>
0

> <PUBCHEM_BOND_UDEF_STEREO_COUNT>
0

> <PUBCHEM_ISOTOPIC_ATOM_COUNT>
0

> <PUBCHEM_COMPONENT_COUNT>
1

> <PUBCHEM_CACTVS_TAUTO_COUNT>
-1

> <PUBCHEM_COORDINATE_TYPE>
1
5
255

> <PUBCHEM_BONDANNOTATIONS>
10  13  8
11  12  8
12  13  8
12  17  8
14  15  8
14  21  8
15  22  8
17  19  8
17  24  8
19  25  8
21  26  8
22  27  8
24  28  8
25  29  8
26  27  8
28  29  8
3  15  8
3  8  8
4  11  8
4  19  8
8  11  8
8  9  8
9  10  8
9  14  8

$$$$
