49830929
  -OEChem-03202503142D

 56 59  0     0  0  0  0  0  0999 V2000
    4.5981    0.2750    0.0000 F   0  0  0  0  0  0  0  0  0  0  0  0
    2.8660    1.2750    0.0000 F   0  0  0  0  0  0  0  0  0  0  0  0
    9.2334   -1.0079    0.0000 O   0  0  0  0  0  0  0  0  0  0  0  0
   11.1439    2.0499    0.0000 N   0  0  0  0  0  0  0  0  0  0  0  0
   13.1009    2.4623    0.0000 N   0  0  0  0  0  0  0  0  0  0  0  0
    7.5870   -0.4698    0.0000 N   0  0  0  0  0  0  0  0  0  0  0  0
    7.8600   -2.2250    0.0000 N   0  0  0  0  0  0  0  0  0  0  0  0
    7.2764   -3.0298    0.0000 N   0  0  0  0  0  0  0  0  0  0  0  0
    5.4641   -3.2250    0.0000 N   0  0  0  0  0  0  0  0  0  0  0  0
    4.5981   -2.7250    0.0000 N   0  0  0  0  0  0  0  0  0  0  0  0
   11.8117    1.3056    0.0000 C   0  0  0  0  0  0  0  0  0  0  0  0
   11.4545    3.0004    0.0000 C   0  0  0  0  0  0  0  0  0  0  0  0
   12.7902    1.5118    0.0000 C   0  0  0  0  0  0  0  0  0  0  0  0
   12.4330    3.2066    0.0000 C   0  0  0  0  0  0  0  0  0  0  0  0
   10.1653    1.8437    0.0000 C   0  0  0  0  0  0  0  0  0  0  0  0
   14.0794    2.6686    0.0000 C   0  0  0  0  0  0  0  0  0  0  0  0
    9.8547    0.8932    0.0000 C   0  0  0  0  0  0  0  0  0  0  0  0
    8.8762    0.6870    0.0000 C   0  0  0  0  0  0  0  0  0  0  0  0
   14.3900    3.6191    0.0000 C   0  0  0  0  0  0  0  0  0  0  0  0
    8.5655   -0.2636    0.0000 C   0  0  0  0  0  0  0  0  0  0  0  0
    7.2764   -1.4203    0.0000 C   0  0  0  0  0  0  0  0  0  0  0  0
    6.3301   -1.7250    0.0000 C   0  0  0  0  0  0  0  0  0  0  0  0
    6.3301   -2.7250    0.0000 C   0  0  0  0  0  0  0  0  0  0  0  0
    5.4641   -1.2250    0.0000 C   0  0  0  0  0  0  0  0  0  0  0  0
    4.5981   -1.7250    0.0000 C   0  0  0  0  0  0  0  0  0  0  0  0
    3.7320   -1.2250    0.0000 C   0  0  0  0  0  0  0  0  0  0  0  0
    3.7320   -0.2250    0.0000 C   0  0  0  0  0  0  0  0  0  0  0  0
    2.8660   -1.7250    0.0000 C   0  0  0  0  0  0  0  0  0  0  0  0
    2.8660    0.2750    0.0000 C   0  0  0  0  0  0  0  0  0  0  0  0
    2.0000   -1.2250    0.0000 C   0  0  0  0  0  0  0  0  0  0  0  0
    2.0000   -0.2250    0.0000 C   0  0  0  0  0  0  0  0  0  0  0  0
   11.2853    0.9780    0.0000 H   0  0  0  0  0  0  0  0  0  0  0  0
   12.0430    0.7304    0.0000 H   0  0  0  0  0  0  0  0  0  0  0  0
   11.4339    3.6201    0.0000 H   0  0  0  0  0  0  0  0  0  0  0  0
   10.8407    3.0878    0.0000 H   0  0  0  0  0  0  0  0  0  0  0  0
   12.8108    0.8922    0.0000 H   0  0  0  0  0  0  0  0  0  0  0  0
   13.4040    1.4245    0.0000 H   0  0  0  0  0  0  0  0  0  0  0  0
   12.9594    3.5343    0.0000 H   0  0  0  0  0  0  0  0  0  0  0  0
   12.2018    3.7819    0.0000 H   0  0  0  0  0  0  0  0  0  0  0  0
   10.1448    2.4634    0.0000 H   0  0  0  0  0  0  0  0  0  0  0  0
    9.5515    1.9310    0.0000 H   0  0  0  0  0  0  0  0  0  0  0  0
   14.0999    2.0489    0.0000 H   0  0  0  0  0  0  0  0  0  0  0  0
   14.6932    2.5812    0.0000 H   0  0  0  0  0  0  0  0  0  0  0  0
    9.8752    0.2735    0.0000 H   0  0  0  0  0  0  0  0  0  0  0  0
   10.4685    0.8058    0.0000 H   0  0  0  0  0  0  0  0  0  0  0  0
    8.8556    1.3066    0.0000 H   0  0  0  0  0  0  0  0  0  0  0  0
    8.2624    0.7743    0.0000 H   0  0  0  0  0  0  0  0  0  0  0  0
   14.9794    3.4265    0.0000 H   0  0  0  0  0  0  0  0  0  0  0  0
   14.5826    4.2084    0.0000 H   0  0  0  0  0  0  0  0  0  0  0  0
   13.8007    3.8117    0.0000 H   0  0  0  0  0  0  0  0  0  0  0  0
    7.1730   -0.0083    0.0000 H   0  0  0  0  0  0  0  0  0  0  0  0
    5.4641   -0.6050    0.0000 H   0  0  0  0  0  0  0  0  0  0  0  0
    7.4690   -3.6191    0.0000 H   0  0  0  0  0  0  0  0  0  0  0  0
    2.8660   -2.3450    0.0000 H   0  0  0  0  0  0  0  0  0  0  0  0
    1.4631   -1.5350    0.0000 H   0  0  0  0  0  0  0  0  0  0  0  0
    1.4631    0.0850    0.0000 H   0  0  0  0  0  0  0  0  0  0  0  0
  1 27  1  0  0  0  0
  2 29  1  0  0  0  0
  3 20  2  0  0  0  0
  4 11  1  0  0  0  0
  4 12  1  0  0  0  0
  4 15  1  0  0  0  0
  5 13  1  0  0  0  0
  5 14  1  0  0  0  0
  5 16  1  0  0  0  0
  6 20  1  0  0  0  0
  6 21  1  0  0  0  0
  6 51  1  0  0  0  0
  7  8  1  0  0  0  0
  7 21  2  0  0  0  0
  8 23  1  0  0  0  0
  8 53  1  0  0  0  0
  9 10  1  0  0  0  0
  9 23  2  0  0  0  0
 10 25  2  0  0  0  0
 11 13  1  0  0  0  0
 11 32  1  0  0  0  0
 11 33  1  0  0  0  0
 12 14  1  0  0  0  0
 12 34  1  0  0  0  0
 12 35  1  0  0  0  0
 13 36  1  0  0  0  0
 13 37  1  0  0  0  0
 14 38  1  0  0  0  0
 14 39  1  0  0  0  0
 15 17  1  0  0  0  0
 15 40  1  0  0  0  0
 15 41  1  0  0  0  0
 16 19  1  0  0  0  0
 16 42  1  0  0  0  0
 16 43  1  0  0  0  0
 17 18  1  0  0  0  0
 17 44  1  0  0  0  0
 17 45  1  0  0  0  0
 18 20  1  0  0  0  0
 18 46  1  0  0  0  0
 18 47  1  0  0  0  0
 19 48  1  0  0  0  0
 19 49  1  0  0  0  0
 19 50  1  0  0  0  0
 21 22  1  0  0  0  0
 22 23  1  0  0  0  0
 22 24  2  0  0  0  0
 24 25  1  0  0  0  0
 24 52  1  0  0  0  0
 25 26  1  0  0  0  0
 26 27  2  0  0  0  0
 26 28  1  0  0  0  0
 27 29  1  0  0  0  0
 28 30  2  0  0  0  0
 28 54  1  0  0  0  0
 29 31  2  0  0  0  0
 30 31  1  0  0  0  0
 30 55  1  0  0  0  0
 31 56  1  0  0  0  0
M  END
> <PUBCHEM_COMPOUND_CID>
49830929

> <PUBCHEM_COMPOUND_CANONICALIZED>
1

> <PUBCHEM_CACTVS_COMPLEXITY>
592

> <PUBCHEM_CACTVS_HBOND_ACCEPTOR>
8

> <PUBCHEM_CACTVS_HBOND_DONOR>
2

> <PUBCHEM_CACTVS_ROTATABLE_BOND>
7

> <PUBCHEM_CACTVS_SUBSKEYS>
AAADceB7oYAAAAAAAAAAAAAAAAAAAWAAAAA8WIAAAAAAAFgB/AAAHwAYAAAADAjBnwwzsN/jAACqAydycACSBAKhAgAduSE4ZJiIYLLA2dGUpAhwnQLIyAcUgMAOAAAAAAAAAAAAAAAAAAAAAAAAAAAAAA==

> <PUBCHEM_IUPAC_OPENEYE_NAME>
N-[5-(2,3-difluorophenyl)-1H-pyrazolo[3,4-c]pyridazin-3-yl]-4-(4-ethylpiperazin-1-yl)butanamide

> <PUBCHEM_IUPAC_CAS_NAME>
N-[5-(2,3-difluorophenyl)-1H-pyrazolo[3,4-c]pyridazin-3-yl]-4-(4-ethyl-1-piperazinyl)butanamide

> <PUBCHEM_IUPAC_NAME_MARKUP>
<I>N</I>-[5-(2,3-difluorophenyl)-1<I>H</I>-pyrazolo[3,4-c]pyridazin-3-yl]-4-(4-ethylpiperazin-1-yl)butanamide

> <PUBCHEM_IUPAC_NAME>
N-[5-(2,3-difluorophenyl)-1H-pyrazolo[3,4-c]pyridazin-3-yl]-4-(4-ethylpiperazin-1-yl)butanamide

> <PUBCHEM_IUPAC_SYSTEMATIC_NAME>
N-[5-[2,3-bis(fluoranyl)phenyl]-1H-pyrazolo[3,4-c]pyridazin-3-yl]-4-(4-ethylpiperazin-1-yl)butanamide

> <PUBCHEM_IUPAC_TRADITIONAL_NAME>
N-[5-(2,3-difluorophenyl)-1H-pyrazolo[3,4-c]pyridazin-3-yl]-4-(4-ethylpiperazino)butyramide

> <PUBCHEM_IUPAC_INCHI>
InChI=1S/C21H25F2N7O/c1-2-29-9-11-30(12-10-29)8-4-7-18(31)24-20-15-13-17(25-27-21(15)28-26-20)14-5-3-6-16(22)19(14)23/h3,5-6,13H,2,4,7-12H2,1H3,(H2,24,26,27,28,31)

> <PUBCHEM_IUPAC_INCHIKEY>
YRVHWCZERXVDLL-UHFFFAOYSA-N

> <PUBCHEM_XLOGP3_AA>
1.7

> <PUBCHEM_EXACT_MASS>
429.20886477

> <PUBCHEM_MOLECULAR_FORMULA>
C21H25F2N7O

> <PUBCHEM_MOLECULAR_WEIGHT>
429.5

> <PUBCHEM_SMILES>
CCN1CCN(CC1)CCCC(=O)NC2=NNC3=NN=C(C=C32)C4=C(C(=CC=C4)F)F

> <PUBCHEM_OPENEYE_CAN_SMILES>
CCN1CCN(CC1)CCCC(=O)NC2=NNC3=NN=C(C=C32)C4=C(C(=CC=C4)F)F

> <PUBCHEM_OPENEYE_ISO_SMILES>
CCN1CCN(CC1)CCCC(=O)NC2=NNC3=NN=C(C=C32)C4=C(C(=CC=C4)F)F

> <PUBCHEM_CACTVS_TPSA>
90

> <PUBCHEM_MONOISOTOPIC_WEIGHT>
429.20886477

> <PUBCHEM_TOTAL_CHARGE>
0

> <PUBCHEM_HEAVY_ATOM_COUNT>
31

> <PUBCHEM_ATOM_DEF_STEREO_COUNT>
0

> <PUBCHEM_ATOM_UDEF_STEREO_COUNT>
0

> <PUBCHEM_BOND_DEF_STEREO_COUNT>
0

> <PUBCHEM_BOND_UDEF_STEREO_COUNT>
0

> <PUBCHEM_ISOTOPIC_ATOM_COUNT>
0

> <PUBCHEM_COMPONENT_COUNT>
1

> <PUBCHEM_CACTVS_TAUTO_COUNT>
-1

> <PUBCHEM_COORDINATE_TYPE>
1
5
255

> <PUBCHEM_BONDANNOTATIONS>
10  25  8
21  22  8
22  23  8
22  24  8
24  25  8
26  27  8
26  28  8
27  29  8
28  30  8
29  31  8
30  31  8
7  21  8
7  8  8
8  23  8
9  10  8
9  23  8

$$$$
