24905205
  -OEChem-03192523402D

 43 47  0     0  0  0  0  0  0999 V2000
    3.7899    0.6812    0.0000 N   0  0  0  0  0  0  0  0  0  0  0  0
    4.7617    0.4720    0.0000 N   0  0  0  0  0  0  0  0  0  0  0  0
    2.3107   -0.3837    0.0000 N   0  0  0  0  0  0  0  0  0  0  0  0
    2.6678   -2.0785    0.0000 N   0  0  0  0  0  0  0  0  0  0  0  0
    4.3142   -2.6166    0.0000 N   0  0  0  0  0  0  0  0  0  0  0  0
    8.3568   -2.5513    0.0000 N   0  0  0  0  0  0  0  0  0  0  0  0
    3.3864    1.5962    0.0000 C   0  0  0  0  0  0  0  0  0  0  0  0
    3.8894    2.4605    0.0000 C   0  0  0  0  0  0  0  0  0  0  0  0
    2.4089    1.8075    0.0000 C   0  0  0  0  0  0  0  0  0  0  0  0
    3.2228    3.2059    0.0000 C   0  0  0  0  0  0  0  0  0  0  0  0
    2.3078    2.8024    0.0000 C   0  0  0  0  0  0  0  0  0  0  0  0
    3.2892   -0.1775    0.0000 C   0  0  0  0  0  0  0  0  0  0  0  0
    3.9570   -0.9218    0.0000 C   0  0  0  0  0  0  0  0  0  0  0  0
    4.8648   -0.5167    0.0000 C   0  0  0  0  0  0  0  0  0  0  0  0
    5.7308   -1.0167    0.0000 C   0  0  0  0  0  0  0  0  0  0  0  0
    3.6464   -1.8723    0.0000 C   0  0  0  0  0  0  0  0  0  0  0  0
    6.5968   -0.5167    0.0000 C   0  0  0  0  0  0  0  0  0  0  0  0
    5.7308   -2.0167    0.0000 C   0  0  0  0  0  0  0  0  0  0  0  0
    2.0000   -1.3342    0.0000 C   0  0  0  0  0  0  0  0  0  0  0  0
    7.4629   -1.0167    0.0000 C   0  0  0  0  0  0  0  0  0  0  0  0
    6.5968   -2.5167    0.0000 C   0  0  0  0  0  0  0  0  0  0  0  0
    7.4629   -2.0167    0.0000 C   0  0  0  0  0  0  0  0  0  0  0  0
    8.3568   -0.4820    0.0000 C   0  0  0  0  0  0  0  0  0  0  0  0
    9.2629   -0.9959    0.0000 C   0  0  0  0  0  0  0  0  0  0  0  0
    9.2629   -2.0375    0.0000 C   0  0  0  0  0  0  0  0  0  0  0  0
    2.9945    1.1157    0.0000 H   0  0  0  0  0  0  0  0  0  0  0  0
    4.3897    2.0943    0.0000 H   0  0  0  0  0  0  0  0  0  0  0  0
    4.3058    2.9198    0.0000 H   0  0  0  0  0  0  0  0  0  0  0  0
    1.7889    1.8096    0.0000 H   0  0  0  0  0  0  0  0  0  0  0  0
    2.3420    1.1911    0.0000 H   0  0  0  0  0  0  0  0  0  0  0  0
    3.7256    3.5686    0.0000 H   0  0  0  0  0  0  0  0  0  0  0  0
    2.9146    3.7440    0.0000 H   0  0  0  0  0  0  0  0  0  0  0  0
    2.1183    3.3927    0.0000 H   0  0  0  0  0  0  0  0  0  0  0  0
    1.7010    2.6756    0.0000 H   0  0  0  0  0  0  0  0  0  0  0  0
    6.5968    0.1033    0.0000 H   0  0  0  0  0  0  0  0  0  0  0  0
    5.1939   -2.3267    0.0000 H   0  0  0  0  0  0  0  0  0  0  0  0
    1.3933   -1.4621    0.0000 H   0  0  0  0  0  0  0  0  0  0  0  0
    6.5968   -3.1367    0.0000 H   0  0  0  0  0  0  0  0  0  0  0  0
    4.1216   -3.2059    0.0000 H   0  0  0  0  0  0  0  0  0  0  0  0
    4.9209   -2.4888    0.0000 H   0  0  0  0  0  0  0  0  0  0  0  0
    8.3496    0.1379    0.0000 H   0  0  0  0  0  0  0  0  0  0  0  0
    9.7986   -0.6838    0.0000 H   0  0  0  0  0  0  0  0  0  0  0  0
    9.7986   -2.3496    0.0000 H   0  0  0  0  0  0  0  0  0  0  0  0
  1  2  1  0  0  0  0
  1  7  1  0  0  0  0
  1 12  1  0  0  0  0
  2 14  2  0  0  0  0
  3 12  2  0  0  0  0
  3 19  1  0  0  0  0
  4 16  1  0  0  0  0
  4 19  2  0  0  0  0
  5 16  1  0  0  0  0
  5 39  1  0  0  0  0
  5 40  1  0  0  0  0
  6 22  1  0  0  0  0
  6 25  2  0  0  0  0
  7  8  1  0  0  0  0
  7  9  1  0  0  0  0
  7 26  1  0  0  0  0
  8 10  1  0  0  0  0
  8 27  1  0  0  0  0
  8 28  1  0  0  0  0
  9 11  1  0  0  0  0
  9 29  1  0  0  0  0
  9 30  1  0  0  0  0
 10 11  1  0  0  0  0
 10 31  1  0  0  0  0
 10 32  1  0  0  0  0
 11 33  1  0  0  0  0
 11 34  1  0  0  0  0
 12 13  1  0  0  0  0
 13 14  1  0  0  0  0
 13 16  2  0  0  0  0
 14 15  1  0  0  0  0
 15 17  2  0  0  0  0
 15 18  1  0  0  0  0
 17 20  1  0  0  0  0
 17 35  1  0  0  0  0
 18 21  2  0  0  0  0
 18 36  1  0  0  0  0
 19 37  1  0  0  0  0
 20 22  2  0  0  0  0
 20 23  1  0  0  0  0
 21 22  1  0  0  0  0
 21 38  1  0  0  0  0
 23 24  2  0  0  0  0
 23 41  1  0  0  0  0
 24 25  1  0  0  0  0
 24 42  1  0  0  0  0
 25 43  1  0  0  0  0
M  END
> <PUBCHEM_COMPOUND_CID>
24905205

> <PUBCHEM_COMPOUND_CANONICALIZED>
1

> <PUBCHEM_CACTVS_COMPLEXITY>
467

> <PUBCHEM_CACTVS_HBOND_ACCEPTOR>
5

> <PUBCHEM_CACTVS_HBOND_DONOR>
1

> <PUBCHEM_CACTVS_ROTATABLE_BOND>
2

> <PUBCHEM_CACTVS_SUBSKEYS>
AAADceB7gAAAAAAAAAAAAAAAAAAAAeIAAAA8WIAAAAAAAFix/gAAHAAYAAAADCjBHwQ98P5IEACiAzZnZACShCsxgqAd2CA4ZJiIKOLA2dGEpAhoiALIyCcQgMAOCAACAAACAAAQAAQAAAQAAAAAAAAAAA==

> <PUBCHEM_IUPAC_OPENEYE_NAME>
1-cyclopentyl-3-(6-quinolyl)pyrazolo[3,4-d]pyrimidin-4-amine

> <PUBCHEM_IUPAC_CAS_NAME>
1-cyclopentyl-3-(6-quinolinyl)-4-pyrazolo[3,4-d]pyrimidinamine

> <PUBCHEM_IUPAC_NAME_MARKUP>
1-cyclopentyl-3-quinolin-6-ylpyrazolo[3,4-d]pyrimidin-4-amine

> <PUBCHEM_IUPAC_NAME>
1-cyclopentyl-3-quinolin-6-ylpyrazolo[3,4-d]pyrimidin-4-amine

> <PUBCHEM_IUPAC_SYSTEMATIC_NAME>
1-cyclopentyl-3-quinolin-6-yl-pyrazolo[3,4-d]pyrimidin-4-amine

> <PUBCHEM_IUPAC_TRADITIONAL_NAME>
[1-cyclopentyl-3-(6-quinolyl)pyrazolo[3,4-d]pyrimidin-4-yl]amine

> <PUBCHEM_IUPAC_INCHI>
InChI=1S/C19H18N6/c20-18-16-17(13-7-8-15-12(10-13)4-3-9-21-15)24-25(14-5-1-2-6-14)19(16)23-11-22-18/h3-4,7-11,14H,1-2,5-6H2,(H2,20,22,23)

> <PUBCHEM_IUPAC_INCHIKEY>
DBZCDBKTCUKQPQ-UHFFFAOYSA-N

> <PUBCHEM_XLOGP3_AA>
2.9

> <PUBCHEM_EXACT_MASS>
330.15929460

> <PUBCHEM_MOLECULAR_FORMULA>
C19H18N6

> <PUBCHEM_MOLECULAR_WEIGHT>
330.4

> <PUBCHEM_SMILES>
C1CCC(C1)N2C3=NC=NC(=C3C(=N2)C4=CC5=C(C=C4)N=CC=C5)N

> <PUBCHEM_OPENEYE_CAN_SMILES>
C1CCC(C1)N2C3=NC=NC(=C3C(=N2)C4=CC5=C(C=C4)N=CC=C5)N

> <PUBCHEM_OPENEYE_ISO_SMILES>
C1CCC(C1)N2C3=NC=NC(=C3C(=N2)C4=CC5=C(C=C4)N=CC=C5)N

> <PUBCHEM_CACTVS_TPSA>
82.5

> <PUBCHEM_MONOISOTOPIC_WEIGHT>
330.15929460

> <PUBCHEM_TOTAL_CHARGE>
0

> <PUBCHEM_HEAVY_ATOM_COUNT>
25

> <PUBCHEM_ATOM_DEF_STEREO_COUNT>
0

> <PUBCHEM_ATOM_UDEF_STEREO_COUNT>
0

> <PUBCHEM_BOND_DEF_STEREO_COUNT>
0

> <PUBCHEM_BOND_UDEF_STEREO_COUNT>
0

> <PUBCHEM_ISOTOPIC_ATOM_COUNT>
0

> <PUBCHEM_COMPONENT_COUNT>
1

> <PUBCHEM_CACTVS_TAUTO_COUNT>
-1

> <PUBCHEM_COORDINATE_TYPE>
1
5
255

> <PUBCHEM_BONDANNOTATIONS>
1  12  8
1  2  8
12  13  8
13  14  8
13  16  8
15  17  8
15  18  8
17  20  8
18  21  8
2  14  8
20  22  8
20  23  8
21  22  8
23  24  8
24  25  8
3  12  8
3  19  8
4  16  8
4  19  8
6  22  8
6  25  8

$$$$
