24905185
  -OEChem-03202500062D

 53 56  0     0  0  0  0  0  0999 V2000
    6.2980    3.4533    0.0000 O   0  0  0  0  0  0  0  0  0  0  0  0
    4.7133    2.7543    0.0000 O   0  0  0  0  0  0  0  0  0  0  0  0
    4.6783   -3.5884    0.0000 N   0  0  0  0  0  0  0  0  0  0  0  0
    6.1110    1.7314    0.0000 N   0  0  0  0  0  0  0  0  0  0  0  0
    5.2619   -2.7836    0.0000 N   0  0  0  0  0  0  0  0  0  0  0  0
    2.8660   -3.7836    0.0000 N   0  0  0  0  0  0  0  0  0  0  0  0
    2.0000   -2.2836    0.0000 N   0  0  0  0  0  0  0  0  0  0  0  0
    2.8660   -0.7836    0.0000 N   0  0  0  0  0  0  0  0  0  0  0  0
    4.9889   -4.5389    0.0000 C   0  0  0  0  0  0  0  0  0  0  0  0
    4.6783   -1.9789    0.0000 C   0  0  0  0  0  0  0  0  0  0  0  0
    3.7320   -2.2836    0.0000 C   0  0  0  0  0  0  0  0  0  0  0  0
    4.9889   -1.0284    0.0000 C   0  0  0  0  0  0  0  0  0  0  0  0
    3.7320   -3.2836    0.0000 C   0  0  0  0  0  0  0  0  0  0  0  0
    5.6103    0.8726    0.0000 C   0  0  0  0  0  0  0  0  0  0  0  0
    6.2781    0.1283    0.0000 C   0  0  0  0  0  0  0  0  0  0  0  0
    5.8944    4.3683    0.0000 C   0  0  0  0  0  0  0  0  0  0  0  0
    5.9674   -0.8222    0.0000 C   0  0  0  0  0  0  0  0  0  0  0  0
    4.3211   -0.2841    0.0000 C   0  0  0  0  0  0  0  0  0  0  0  0
    4.6318    0.6664    0.0000 C   0  0  0  0  0  0  0  0  0  0  0  0
    5.9674   -4.7451    0.0000 C   0  0  0  0  0  0  0  0  0  0  0  0
    4.3211   -5.2832    0.0000 C   0  0  0  0  0  0  0  0  0  0  0  0
    7.1859    0.5335    0.0000 C   0  0  0  0  0  0  0  0  0  0  0  0
    7.0828    1.5222    0.0000 C   0  0  0  0  0  0  0  0  0  0  0  0
    2.8660   -1.7836    0.0000 C   0  0  0  0  0  0  0  0  0  0  0  0
    5.7074    2.6463    0.0000 C   0  0  0  0  0  0  0  0  0  0  0  0
    5.4909    5.2832    0.0000 C   0  0  0  0  0  0  0  0  0  0  0  0
    6.8094    4.7718    0.0000 C   0  0  0  0  0  0  0  0  0  0  0  0
    4.9795    3.9647    0.0000 C   0  0  0  0  0  0  0  0  0  0  0  0
    2.0000   -3.2836    0.0000 C   0  0  0  0  0  0  0  0  0  0  0  0
    5.4030   -4.0774    0.0000 H   0  0  0  0  0  0  0  0  0  0  0  0
    6.3815   -1.2836    0.0000 H   0  0  0  0  0  0  0  0  0  0  0  0
    3.7144   -0.4120    0.0000 H   0  0  0  0  0  0  0  0  0  0  0  0
    4.2177    1.1279    0.0000 H   0  0  0  0  0  0  0  0  0  0  0  0
    5.8396   -5.3518    0.0000 H   0  0  0  0  0  0  0  0  0  0  0  0
    6.5741   -4.8730    0.0000 H   0  0  0  0  0  0  0  0  0  0  0  0
    6.0953   -4.1384    0.0000 H   0  0  0  0  0  0  0  0  0  0  0  0
    3.8596   -4.8691    0.0000 H   0  0  0  0  0  0  0  0  0  0  0  0
    3.9070   -5.7447    0.0000 H   0  0  0  0  0  0  0  0  0  0  0  0
    4.7826   -5.6973    0.0000 H   0  0  0  0  0  0  0  0  0  0  0  0
    7.7228    0.2235    0.0000 H   0  0  0  0  0  0  0  0  0  0  0  0
    7.5443    1.9362    0.0000 H   0  0  0  0  0  0  0  0  0  0  0  0
    6.0582    5.5334    0.0000 H   0  0  0  0  0  0  0  0  0  0  0  0
    5.2407    5.8505    0.0000 H   0  0  0  0  0  0  0  0  0  0  0  0
    4.9236    5.0330    0.0000 H   0  0  0  0  0  0  0  0  0  0  0  0
    7.0596    4.2046    0.0000 H   0  0  0  0  0  0  0  0  0  0  0  0
    7.3767    5.0220    0.0000 H   0  0  0  0  0  0  0  0  0  0  0  0
    6.5592    5.3391    0.0000 H   0  0  0  0  0  0  0  0  0  0  0  0
    4.7293    4.5320    0.0000 H   0  0  0  0  0  0  0  0  0  0  0  0
    4.4122    3.7145    0.0000 H   0  0  0  0  0  0  0  0  0  0  0  0
    5.2297    3.3974    0.0000 H   0  0  0  0  0  0  0  0  0  0  0  0
    1.4631   -3.5936    0.0000 H   0  0  0  0  0  0  0  0  0  0  0  0
    2.3291   -0.4736    0.0000 H   0  0  0  0  0  0  0  0  0  0  0  0
    3.4030   -0.4736    0.0000 H   0  0  0  0  0  0  0  0  0  0  0  0
  1 16  1  0  0  0  0
  1 25  1  0  0  0  0
  2 25  2  0  0  0  0
  3  5  1  0  0  0  0
  3  9  1  0  0  0  0
  3 13  1  0  0  0  0
  4 14  1  0  0  0  0
  4 23  1  0  0  0  0
  4 25  1  0  0  0  0
  5 10  2  0  0  0  0
  6 13  2  0  0  0  0
  6 29  1  0  0  0  0
  7 24  1  0  0  0  0
  7 29  2  0  0  0  0
  8 24  1  0  0  0  0
  8 52  1  0  0  0  0
  8 53  1  0  0  0  0
  9 20  1  0  0  0  0
  9 21  1  0  0  0  0
  9 30  1  0  0  0  0
 10 11  1  0  0  0  0
 10 12  1  0  0  0  0
 11 13  1  0  0  0  0
 11 24  2  0  0  0  0
 12 17  2  0  0  0  0
 12 18  1  0  0  0  0
 14 15  2  0  0  0  0
 14 19  1  0  0  0  0
 15 17  1  0  0  0  0
 15 22  1  0  0  0  0
 16 26  1  0  0  0  0
 16 27  1  0  0  0  0
 16 28  1  0  0  0  0
 17 31  1  0  0  0  0
 18 19  2  0  0  0  0
 18 32  1  0  0  0  0
 19 33  1  0  0  0  0
 20 34  1  0  0  0  0
 20 35  1  0  0  0  0
 20 36  1  0  0  0  0
 21 37  1  0  0  0  0
 21 38  1  0  0  0  0
 21 39  1  0  0  0  0
 22 23  2  0  0  0  0
 22 40  1  0  0  0  0
 23 41  1  0  0  0  0
 26 42  1  0  0  0  0
 26 43  1  0  0  0  0
 26 44  1  0  0  0  0
 27 45  1  0  0  0  0
 27 46  1  0  0  0  0
 27 47  1  0  0  0  0
 28 48  1  0  0  0  0
 28 49  1  0  0  0  0
 28 50  1  0  0  0  0
 29 51  1  0  0  0  0
M  END
> <PUBCHEM_COMPOUND_CID>
24905185

> <PUBCHEM_COMPOUND_CANONICALIZED>
1

> <PUBCHEM_CACTVS_COMPLEXITY>
608

> <PUBCHEM_CACTVS_HBOND_ACCEPTOR>
6

> <PUBCHEM_CACTVS_HBOND_DONOR>
1

> <PUBCHEM_CACTVS_ROTATABLE_BOND>
4

> <PUBCHEM_CACTVS_SUBSKEYS>
AAADceB7sAAAAAAAAAAAAAAAAAAAAWLAAAA8QAAAAAAAAFgB/gAAHgAYAAAADGzBnwQ/+P9MFACqAzZnfACShCsxgqAd2CA4ZJiIKOLA2dGMpAhojgLIyCcQgMAOCAACAAACAAAQAAQAAAQAAAAAAAAAAA==

> <PUBCHEM_IUPAC_OPENEYE_NAME>
tert-butyl 5-(4-amino-1-isopropyl-pyrazolo[3,4-d]pyrimidin-3-yl)indole-1-carboxylate

> <PUBCHEM_IUPAC_CAS_NAME>
5-(4-amino-1-propan-2-yl-3-pyrazolo[3,4-d]pyrimidinyl)-1-indolecarboxylic acid tert-butyl ester

> <PUBCHEM_IUPAC_NAME_MARKUP>
<I>tert</I>-butyl 5-(4-amino-1-propan-2-ylpyrazolo[3,4-d]pyrimidin-3-yl)indole-1-carboxylate

> <PUBCHEM_IUPAC_NAME>
tert-butyl 5-(4-amino-1-propan-2-ylpyrazolo[3,4-d]pyrimidin-3-yl)indole-1-carboxylate

> <PUBCHEM_IUPAC_SYSTEMATIC_NAME>
tert-butyl 5-(4-azanyl-1-propan-2-yl-pyrazolo[3,4-d]pyrimidin-3-yl)indole-1-carboxylate

> <PUBCHEM_IUPAC_TRADITIONAL_NAME>
5-(4-amino-1-isopropyl-pyrazolo[3,4-d]pyrimidin-3-yl)indole-1-carboxylic acid tert-butyl ester

> <PUBCHEM_IUPAC_INCHI>
InChI=1S/C21H24N6O2/c1-12(2)27-19-16(18(22)23-11-24-19)17(25-27)14-6-7-15-13(10-14)8-9-26(15)20(28)29-21(3,4)5/h6-12H,1-5H3,(H2,22,23,24)

> <PUBCHEM_IUPAC_INCHIKEY>
PFRDPPRTLFHGLR-UHFFFAOYSA-N

> <PUBCHEM_XLOGP3_AA>
3.5

> <PUBCHEM_EXACT_MASS>
392.19607403

> <PUBCHEM_MOLECULAR_FORMULA>
C21H24N6O2

> <PUBCHEM_MOLECULAR_WEIGHT>
392.5

> <PUBCHEM_SMILES>
CC(C)N1C2=NC=NC(=C2C(=N1)C3=CC4=C(C=C3)N(C=C4)C(=O)OC(C)(C)C)N

> <PUBCHEM_OPENEYE_CAN_SMILES>
CC(C)N1C2=NC=NC(=C2C(=N1)C3=CC4=C(C=C3)N(C=C4)C(=O)OC(C)(C)C)N

> <PUBCHEM_OPENEYE_ISO_SMILES>
CC(C)N1C2=NC=NC(=C2C(=N1)C3=CC4=C(C=C3)N(C=C4)C(=O)OC(C)(C)C)N

> <PUBCHEM_CACTVS_TPSA>
101

> <PUBCHEM_MONOISOTOPIC_WEIGHT>
392.19607403

> <PUBCHEM_TOTAL_CHARGE>
0

> <PUBCHEM_HEAVY_ATOM_COUNT>
29

> <PUBCHEM_ATOM_DEF_STEREO_COUNT>
0

> <PUBCHEM_ATOM_UDEF_STEREO_COUNT>
0

> <PUBCHEM_BOND_DEF_STEREO_COUNT>
0

> <PUBCHEM_BOND_UDEF_STEREO_COUNT>
0

> <PUBCHEM_ISOTOPIC_ATOM_COUNT>
0

> <PUBCHEM_COMPONENT_COUNT>
1

> <PUBCHEM_CACTVS_TAUTO_COUNT>
-1

> <PUBCHEM_COORDINATE_TYPE>
1
5
255

> <PUBCHEM_BONDANNOTATIONS>
10  11  8
11  13  8
11  24  8
12  17  8
12  18  8
14  15  8
14  19  8
15  17  8
15  22  8
18  19  8
22  23  8
3  13  8
3  5  8
4  14  8
4  23  8
5  10  8
6  13  8
6  29  8
7  24  8
7  29  8

$$$$
