49830769
  -OEChem-03202504082D

 45 48  0     0  0  0  0  0  0999 V2000
    3.7320   -1.4400    0.0000 Cl  0  0  0  0  0  0  0  0  0  0  0  0
    2.0000    1.5600    0.0000 O   0  0  0  0  0  0  0  0  0  0  0  0
    3.7320    0.5600    0.0000 N   0  0  0  0  0  0  0  0  0  0  0  0
    7.1962   -1.4400    0.0000 N   0  0  0  0  0  0  0  0  0  0  0  0
    8.0622    0.0600    0.0000 N   0  0  0  0  0  0  0  0  0  0  0  0
   10.7404   -1.2447    0.0000 N   0  0  0  0  0  0  0  0  0  0  0  0
    8.9282   -1.4400    0.0000 N   0  0  0  0  0  0  0  0  0  0  0  0
    3.7320    1.5600    0.0000 C   0  0  0  0  0  0  0  0  0  0  0  0
    2.8660    0.0600    0.0000 C   0  0  0  0  0  0  0  0  0  0  0  0
    2.8660    2.0600    0.0000 C   0  0  0  0  0  0  0  0  0  0  0  0
    2.0000    0.5600    0.0000 C   0  0  0  0  0  0  0  0  0  0  0  0
    4.5981    0.0600    0.0000 C   0  0  0  0  0  0  0  0  0  0  0  0
    4.5981   -0.9400    0.0000 C   0  0  0  0  0  0  0  0  0  0  0  0
    5.4641    0.5600    0.0000 C   0  0  0  0  0  0  0  0  0  0  0  0
    6.3301   -0.9400    0.0000 C   0  0  0  0  0  0  0  0  0  0  0  0
    5.4641   -1.4400    0.0000 C   0  0  0  0  0  0  0  0  0  0  0  0
    6.3301    0.0600    0.0000 C   0  0  0  0  0  0  0  0  0  0  0  0
    9.7942    0.0600    0.0000 C   0  0  0  0  0  0  0  0  0  0  0  0
    8.9282    0.5600    0.0000 C   0  0  0  0  0  0  0  0  0  0  0  0
    9.7942   -0.9400    0.0000 C   0  0  0  0  0  0  0  0  0  0  0  0
    8.0622   -0.9400    0.0000 C   0  0  0  0  0  0  0  0  0  0  0  0
    8.9282    1.5600    0.0000 C   0  0  0  0  0  0  0  0  0  0  0  0
   10.7404    0.3647    0.0000 C   0  0  0  0  0  0  0  0  0  0  0  0
   11.3241   -0.4400    0.0000 C   0  0  0  0  0  0  0  0  0  0  0  0
    8.0622    2.0600    0.0000 C   0  0  0  0  0  0  0  0  0  0  0  0
    4.3426    1.4523    0.0000 H   0  0  0  0  0  0  0  0  0  0  0  0
    3.9441    2.1426    0.0000 H   0  0  0  0  0  0  0  0  0  0  0  0
    2.4675   -0.4149    0.0000 H   0  0  0  0  0  0  0  0  0  0  0  0
    3.2646   -0.4149    0.0000 H   0  0  0  0  0  0  0  0  0  0  0  0
    3.2646    2.5349    0.0000 H   0  0  0  0  0  0  0  0  0  0  0  0
    2.4675    2.5349    0.0000 H   0  0  0  0  0  0  0  0  0  0  0  0
    1.3894    0.6677    0.0000 H   0  0  0  0  0  0  0  0  0  0  0  0
    1.7880   -0.0226    0.0000 H   0  0  0  0  0  0  0  0  0  0  0  0
    5.4641    1.1800    0.0000 H   0  0  0  0  0  0  0  0  0  0  0  0
    5.4641   -2.0600    0.0000 H   0  0  0  0  0  0  0  0  0  0  0  0
    6.8671    0.3700    0.0000 H   0  0  0  0  0  0  0  0  0  0  0  0
    7.1962   -2.0600    0.0000 H   0  0  0  0  0  0  0  0  0  0  0  0
    9.5388    1.4523    0.0000 H   0  0  0  0  0  0  0  0  0  0  0  0
    9.1403    2.1426    0.0000 H   0  0  0  0  0  0  0  0  0  0  0  0
   10.9331    0.9541    0.0000 H   0  0  0  0  0  0  0  0  0  0  0  0
   10.9331   -1.8340    0.0000 H   0  0  0  0  0  0  0  0  0  0  0  0
   11.9441   -0.4400    0.0000 H   0  0  0  0  0  0  0  0  0  0  0  0
    8.3722    2.5969    0.0000 H   0  0  0  0  0  0  0  0  0  0  0  0
    7.5252    2.3700    0.0000 H   0  0  0  0  0  0  0  0  0  0  0  0
    7.7522    1.5231    0.0000 H   0  0  0  0  0  0  0  0  0  0  0  0
  1 13  1  0  0  0  0
  2 10  1  0  0  0  0
  2 11  1  0  0  0  0
  3  8  1  0  0  0  0
  3  9  1  0  0  0  0
  3 12  1  0  0  0  0
  4 15  1  0  0  0  0
  4 21  1  0  0  0  0
  4 37  1  0  0  0  0
  5 19  1  0  0  0  0
  5 21  2  0  0  0  0
  6 20  1  0  0  0  0
  6 24  1  0  0  0  0
  6 41  1  0  0  0  0
  7 20  2  0  0  0  0
  7 21  1  0  0  0  0
  8 10  1  0  0  0  0
  8 26  1  0  0  0  0
  8 27  1  0  0  0  0
  9 11  1  0  0  0  0
  9 28  1  0  0  0  0
  9 29  1  0  0  0  0
 10 30  1  0  0  0  0
 10 31  1  0  0  0  0
 11 32  1  0  0  0  0
 11 33  1  0  0  0  0
 12 13  2  0  0  0  0
 12 14  1  0  0  0  0
 13 16  1  0  0  0  0
 14 17  2  0  0  0  0
 14 34  1  0  0  0  0
 15 16  2  0  0  0  0
 15 17  1  0  0  0  0
 16 35  1  0  0  0  0
 17 36  1  0  0  0  0
 18 19  2  0  0  0  0
 18 20  1  0  0  0  0
 18 23  1  0  0  0  0
 19 22  1  0  0  0  0
 22 25  1  0  0  0  0
 22 38  1  0  0  0  0
 22 39  1  0  0  0  0
 23 24  2  0  0  0  0
 23 40  1  0  0  0  0
 24 42  1  0  0  0  0
 25 43  1  0  0  0  0
 25 44  1  0  0  0  0
 25 45  1  0  0  0  0
M  END
> <PUBCHEM_COMPOUND_CID>
49830769

> <PUBCHEM_COMPOUND_CANONICALIZED>
1

> <PUBCHEM_CACTVS_COMPLEXITY>
436

> <PUBCHEM_CACTVS_HBOND_ACCEPTOR>
5

> <PUBCHEM_CACTVS_HBOND_DONOR>
2

> <PUBCHEM_CACTVS_ROTATABLE_BOND>
4

> <PUBCHEM_CACTVS_SUBSKEYS>
AAADceB7oAAEAAAAAAAAAAAAAAAAAWAAAAA8WIAAAAAAAFgB/AAAHgIQAAAADArhnyY/8N/JlACgAzZnZACCgCmxB6AJ2aA4ZpiKKOLB29HHJAhokALYyCcQAAAOAACAAAIAABAAAQAABAAAIAAAAAAAAA==

> <PUBCHEM_IUPAC_OPENEYE_NAME>
N-(3-chloro-4-morpholino-phenyl)-4-ethyl-7H-pyrrolo[2,3-d]pyrimidin-2-amine

> <PUBCHEM_IUPAC_CAS_NAME>
N-[3-chloro-4-(4-morpholinyl)phenyl]-4-ethyl-7H-pyrrolo[2,3-d]pyrimidin-2-amine

> <PUBCHEM_IUPAC_NAME_MARKUP>
<I>N</I>-(3-chloro-4-morpholin-4-ylphenyl)-4-ethyl-7<I>H</I>-pyrrolo[2,3-d]pyrimidin-2-amine

> <PUBCHEM_IUPAC_NAME>
N-(3-chloro-4-morpholin-4-ylphenyl)-4-ethyl-7H-pyrrolo[2,3-d]pyrimidin-2-amine

> <PUBCHEM_IUPAC_SYSTEMATIC_NAME>
N-(3-chloranyl-4-morpholin-4-yl-phenyl)-4-ethyl-7H-pyrrolo[2,3-d]pyrimidin-2-amine

> <PUBCHEM_IUPAC_TRADITIONAL_NAME>
(3-chloro-4-morpholino-phenyl)-(4-ethyl-7H-pyrrolo[2,3-d]pyrimidin-2-yl)amine

> <PUBCHEM_IUPAC_INCHI>
InChI=1S/C18H20ClN5O/c1-2-15-13-5-6-20-17(13)23-18(22-15)21-12-3-4-16(14(19)11-12)24-7-9-25-10-8-24/h3-6,11H,2,7-10H2,1H3,(H2,20,21,22,23)

> <PUBCHEM_IUPAC_INCHIKEY>
FOXLXMLEOCIUHE-UHFFFAOYSA-N

> <PUBCHEM_XLOGP3_AA>
3.7

> <PUBCHEM_EXACT_MASS>
357.1356380

> <PUBCHEM_MOLECULAR_FORMULA>
C18H20ClN5O

> <PUBCHEM_MOLECULAR_WEIGHT>
357.8

> <PUBCHEM_SMILES>
CCC1=C2C=CNC2=NC(=N1)NC3=CC(=C(C=C3)N4CCOCC4)Cl

> <PUBCHEM_OPENEYE_CAN_SMILES>
CCC1=C2C=CNC2=NC(=N1)NC3=CC(=C(C=C3)N4CCOCC4)Cl

> <PUBCHEM_OPENEYE_ISO_SMILES>
CCC1=C2C=CNC2=NC(=N1)NC3=CC(=C(C=C3)N4CCOCC4)Cl

> <PUBCHEM_CACTVS_TPSA>
66.1

> <PUBCHEM_MONOISOTOPIC_WEIGHT>
357.1356380

> <PUBCHEM_TOTAL_CHARGE>
0

> <PUBCHEM_HEAVY_ATOM_COUNT>
25

> <PUBCHEM_ATOM_DEF_STEREO_COUNT>
0

> <PUBCHEM_ATOM_UDEF_STEREO_COUNT>
0

> <PUBCHEM_BOND_DEF_STEREO_COUNT>
0

> <PUBCHEM_BOND_UDEF_STEREO_COUNT>
0

> <PUBCHEM_ISOTOPIC_ATOM_COUNT>
0

> <PUBCHEM_COMPONENT_COUNT>
1

> <PUBCHEM_CACTVS_TAUTO_COUNT>
-1

> <PUBCHEM_COORDINATE_TYPE>
1
5
255

> <PUBCHEM_BONDANNOTATIONS>
12  13  8
12  14  8
13  16  8
14  17  8
15  16  8
15  17  8
18  19  8
18  20  8
18  23  8
23  24  8
5  19  8
5  21  8
6  20  8
6  24  8
7  20  8
7  21  8

$$$$
