56835147
  -OEChem-03202500412D

 66 70  0     0  0  0  0  0  0999 V2000
   12.4525   -5.5204    0.0000 F   0  0  0  0  0  0  0  0  0  0  0  0
    6.3243    4.0037    0.0000 O   0  0  0  0  0  0  0  0  0  0  0  0
   12.4525   -2.5204    0.0000 O   0  0  0  0  0  0  0  0  0  0  0  0
    2.8641    5.0171    0.0000 N   0  0  0  0  0  0  0  0  0  0  0  0
    9.8544    3.9796    0.0000 N   0  0  0  0  0  0  0  0  0  0  0  0
    9.8544    0.9796    0.0000 N   0  0  0  0  0  0  0  0  0  0  0  0
   10.7205    2.4796    0.0000 N   0  0  0  0  0  0  0  0  0  0  0  0
   13.3185   -1.0204    0.0000 N   0  0  0  0  0  0  0  0  0  0  0  0
   14.1846   -2.5204    0.0000 N   0  0  0  0  0  0  0  0  0  0  0  0
    4.5923    4.0104    0.0000 C   0  0  0  0  0  0  0  0  0  0  0  0
    4.5961    5.0104    0.0000 C   0  0  0  0  0  0  0  0  0  0  0  0
    3.7243    3.5138    0.0000 C   0  0  0  0  0  0  0  0  0  0  0  0
    3.7320    5.5137    0.0000 C   0  0  0  0  0  0  0  0  0  0  0  0
    2.8602    4.0171    0.0000 C   0  0  0  0  0  0  0  0  0  0  0  0
    5.4564    3.5071    0.0000 C   0  0  0  0  0  0  0  0  0  0  0  0
    2.0000    5.5204    0.0000 C   0  0  0  0  0  0  0  0  0  0  0  0
    7.1884    3.5004    0.0000 C   0  0  0  0  0  0  0  0  0  0  0  0
    8.0945    4.0142    0.0000 C   0  0  0  0  0  0  0  0  0  0  0  0
    7.1884    2.4588    0.0000 C   0  0  0  0  0  0  0  0  0  0  0  0
    8.9884    3.4796    0.0000 C   0  0  0  0  0  0  0  0  0  0  0  0
    8.9884    2.4796    0.0000 C   0  0  0  0  0  0  0  0  0  0  0  0
    8.0945    1.9449    0.0000 C   0  0  0  0  0  0  0  0  0  0  0  0
    9.8544    1.9796    0.0000 C   0  0  0  0  0  0  0  0  0  0  0  0
   10.7205    3.4796    0.0000 C   0  0  0  0  0  0  0  0  0  0  0  0
   10.7205    0.4796    0.0000 C   0  0  0  0  0  0  0  0  0  0  0  0
   10.7205   -0.5204    0.0000 C   0  0  0  0  0  0  0  0  0  0  0  0
   11.5865    0.9796    0.0000 C   0  0  0  0  0  0  0  0  0  0  0  0
   12.4525   -0.5204    0.0000 C   0  0  0  0  0  0  0  0  0  0  0  0
   11.5865   -1.0204    0.0000 C   0  0  0  0  0  0  0  0  0  0  0  0
   12.4525    0.4796    0.0000 C   0  0  0  0  0  0  0  0  0  0  0  0
   13.3185   -2.0204    0.0000 C   0  0  0  0  0  0  0  0  0  0  0  0
   14.1846   -3.5204    0.0000 C   0  0  0  0  0  0  0  0  0  0  0  0
   13.3185   -4.0204    0.0000 C   0  0  0  0  0  0  0  0  0  0  0  0
   15.0506   -4.0204    0.0000 C   0  0  0  0  0  0  0  0  0  0  0  0
   13.3185   -5.0204    0.0000 C   0  0  0  0  0  0  0  0  0  0  0  0
   15.0506   -5.0204    0.0000 C   0  0  0  0  0  0  0  0  0  0  0  0
   14.1846   -5.5204    0.0000 C   0  0  0  0  0  0  0  0  0  0  0  0
    4.5899    3.3904    0.0000 H   0  0  0  0  0  0  0  0  0  0  0  0
    5.2063    4.9004    0.0000 H   0  0  0  0  0  0  0  0  0  0  0  0
    4.8104    5.5922    0.0000 H   0  0  0  0  0  0  0  0  0  0  0  0
    3.3240    3.0404    0.0000 H   0  0  0  0  0  0  0  0  0  0  0  0
    4.1210    3.0373    0.0000 H   0  0  0  0  0  0  0  0  0  0  0  0
    4.1324    5.9872    0.0000 H   0  0  0  0  0  0  0  0  0  0  0  0
    3.3353    5.9902    0.0000 H   0  0  0  0  0  0  0  0  0  0  0  0
    2.2501    4.1271    0.0000 H   0  0  0  0  0  0  0  0  0  0  0  0
    2.6459    3.4353    0.0000 H   0  0  0  0  0  0  0  0  0  0  0  0
    5.0560    3.0337    0.0000 H   0  0  0  0  0  0  0  0  0  0  0  0
    5.8531    3.0306    0.0000 H   0  0  0  0  0  0  0  0  0  0  0  0
    2.3121    6.0562    0.0000 H   0  0  0  0  0  0  0  0  0  0  0  0
    1.4643    5.8325    0.0000 H   0  0  0  0  0  0  0  0  0  0  0  0
    1.6879    4.9847    0.0000 H   0  0  0  0  0  0  0  0  0  0  0  0
    8.1016    4.6342    0.0000 H   0  0  0  0  0  0  0  0  0  0  0  0
    6.6527    2.1467    0.0000 H   0  0  0  0  0  0  0  0  0  0  0  0
    8.1016    1.3250    0.0000 H   0  0  0  0  0  0  0  0  0  0  0  0
    9.3175    0.6696    0.0000 H   0  0  0  0  0  0  0  0  0  0  0  0
   11.2574    3.7896    0.0000 H   0  0  0  0  0  0  0  0  0  0  0  0
   10.1835   -0.8304    0.0000 H   0  0  0  0  0  0  0  0  0  0  0  0
   11.5865    1.5996    0.0000 H   0  0  0  0  0  0  0  0  0  0  0  0
   11.5865   -1.6404    0.0000 H   0  0  0  0  0  0  0  0  0  0  0  0
   12.9895    0.7896    0.0000 H   0  0  0  0  0  0  0  0  0  0  0  0
   13.8555   -0.7104    0.0000 H   0  0  0  0  0  0  0  0  0  0  0  0
   14.7215   -2.2104    0.0000 H   0  0  0  0  0  0  0  0  0  0  0  0
   12.7816   -3.7104    0.0000 H   0  0  0  0  0  0  0  0  0  0  0  0
   15.5875   -3.7104    0.0000 H   0  0  0  0  0  0  0  0  0  0  0  0
   15.5875   -5.3304    0.0000 H   0  0  0  0  0  0  0  0  0  0  0  0
   14.1846   -6.1404    0.0000 H   0  0  0  0  0  0  0  0  0  0  0  0
  1 35  1  0  0  0  0
  2 15  1  0  0  0  0
  2 17  1  0  0  0  0
  3 31  2  0  0  0  0
  4 13  1  0  0  0  0
  4 14  1  0  0  0  0
  4 16  1  0  0  0  0
  5 20  1  0  0  0  0
  5 24  2  0  0  0  0
  6 23  1  0  0  0  0
  6 25  1  0  0  0  0
  6 55  1  0  0  0  0
  7 23  2  0  0  0  0
  7 24  1  0  0  0  0
  8 28  1  0  0  0  0
  8 31  1  0  0  0  0
  8 61  1  0  0  0  0
  9 31  1  0  0  0  0
  9 32  1  0  0  0  0
  9 62  1  0  0  0  0
 10 11  1  0  0  0  0
 10 12  1  0  0  0  0
 10 15  1  0  0  0  0
 10 38  1  0  0  0  0
 11 13  1  0  0  0  0
 11 39  1  0  0  0  0
 11 40  1  0  0  0  0
 12 14  1  0  0  0  0
 12 41  1  0  0  0  0
 12 42  1  0  0  0  0
 13 43  1  0  0  0  0
 13 44  1  0  0  0  0
 14 45  1  0  0  0  0
 14 46  1  0  0  0  0
 15 47  1  0  0  0  0
 15 48  1  0  0  0  0
 16 49  1  0  0  0  0
 16 50  1  0  0  0  0
 16 51  1  0  0  0  0
 17 18  2  0  0  0  0
 17 19  1  0  0  0  0
 18 20  1  0  0  0  0
 18 52  1  0  0  0  0
 19 22  2  0  0  0  0
 19 53  1  0  0  0  0
 20 21  2  0  0  0  0
 21 22  1  0  0  0  0
 21 23  1  0  0  0  0
 22 54  1  0  0  0  0
 24 56  1  0  0  0  0
 25 26  2  0  0  0  0
 25 27  1  0  0  0  0
 26 29  1  0  0  0  0
 26 57  1  0  0  0  0
 27 30  2  0  0  0  0
 27 58  1  0  0  0  0
 28 29  2  0  0  0  0
 28 30  1  0  0  0  0
 29 59  1  0  0  0  0
 30 60  1  0  0  0  0
 32 33  2  0  0  0  0
 32 34  1  0  0  0  0
 33 35  1  0  0  0  0
 33 63  1  0  0  0  0
 34 36  2  0  0  0  0
 34 64  1  0  0  0  0
 35 37  2  0  0  0  0
 36 37  1  0  0  0  0
 36 65  1  0  0  0  0
 37 66  1  0  0  0  0
M  END
> <PUBCHEM_COMPOUND_CID>
56835147

> <PUBCHEM_COMPOUND_CANONICALIZED>
1

> <PUBCHEM_CACTVS_COMPLEXITY>
715

> <PUBCHEM_CACTVS_HBOND_ACCEPTOR>
7

> <PUBCHEM_CACTVS_HBOND_DONOR>
3

> <PUBCHEM_CACTVS_ROTATABLE_BOND>
7

> <PUBCHEM_CACTVS_SUBSKEYS>
AAADceB7sQAAAAAAAAAAAAAAAAAAAAAAAAA8eMECAAAAAACx9AAAHwAQAAAADQzhng439vfIFACoAyZjdACCiCkxIqAJ2CA+bJiMLuLE+duGPCju1BvI6Cew0AMOIACAAgACAABAAQAEAAQAAAAAAAAAAA==

> <PUBCHEM_IUPAC_OPENEYE_NAME>
1-(3-fluorophenyl)-3-[4-[[7-[(1-methyl-4-piperidyl)methoxy]quinazolin-4-yl]amino]phenyl]urea

> <PUBCHEM_IUPAC_CAS_NAME>
1-(3-fluorophenyl)-3-[4-[[7-[(1-methyl-4-piperidinyl)methoxy]-4-quinazolinyl]amino]phenyl]urea

> <PUBCHEM_IUPAC_NAME_MARKUP>
1-(3-fluorophenyl)-3-[4-[[7-[(1-methylpiperidin-4-yl)methoxy]quinazolin-4-yl]amino]phenyl]urea

> <PUBCHEM_IUPAC_NAME>
1-(3-fluorophenyl)-3-[4-[[7-[(1-methylpiperidin-4-yl)methoxy]quinazolin-4-yl]amino]phenyl]urea

> <PUBCHEM_IUPAC_SYSTEMATIC_NAME>
1-(3-fluorophenyl)-3-[4-[[7-[(1-methylpiperidin-4-yl)methoxy]quinazolin-4-yl]amino]phenyl]urea

> <PUBCHEM_IUPAC_TRADITIONAL_NAME>
1-(3-fluorophenyl)-3-[4-[[7-[(1-methyl-4-piperidyl)methoxy]quinazolin-4-yl]amino]phenyl]urea

> <PUBCHEM_IUPAC_INCHI>
InChI=1S/C28H29FN6O2/c1-35-13-11-19(12-14-35)17-37-24-9-10-25-26(16-24)30-18-31-27(25)32-21-5-7-22(8-6-21)33-28(36)34-23-4-2-3-20(29)15-23/h2-10,15-16,18-19H,11-14,17H2,1H3,(H,30,31,32)(H2,33,34,36)

> <PUBCHEM_IUPAC_INCHIKEY>
KCVMRCBFSCVBTH-UHFFFAOYSA-N

> <PUBCHEM_XLOGP3_AA>
4.8

> <PUBCHEM_EXACT_MASS>
500.23360235

> <PUBCHEM_MOLECULAR_FORMULA>
C28H29FN6O2

> <PUBCHEM_MOLECULAR_WEIGHT>
500.6

> <PUBCHEM_SMILES>
CN1CCC(CC1)COC2=CC3=C(C=C2)C(=NC=N3)NC4=CC=C(C=C4)NC(=O)NC5=CC(=CC=C5)F

> <PUBCHEM_OPENEYE_CAN_SMILES>
CN1CCC(CC1)COC2=CC3=C(C=C2)C(=NC=N3)NC4=CC=C(C=C4)NC(=O)NC5=CC(=CC=C5)F

> <PUBCHEM_OPENEYE_ISO_SMILES>
CN1CCC(CC1)COC2=CC3=C(C=C2)C(=NC=N3)NC4=CC=C(C=C4)NC(=O)NC5=CC(=CC=C5)F

> <PUBCHEM_CACTVS_TPSA>
91.4

> <PUBCHEM_MONOISOTOPIC_WEIGHT>
500.23360235

> <PUBCHEM_TOTAL_CHARGE>
0

> <PUBCHEM_HEAVY_ATOM_COUNT>
37

> <PUBCHEM_ATOM_DEF_STEREO_COUNT>
0

> <PUBCHEM_ATOM_UDEF_STEREO_COUNT>
0

> <PUBCHEM_BOND_DEF_STEREO_COUNT>
0

> <PUBCHEM_BOND_UDEF_STEREO_COUNT>
0

> <PUBCHEM_ISOTOPIC_ATOM_COUNT>
0

> <PUBCHEM_COMPONENT_COUNT>
1

> <PUBCHEM_CACTVS_TAUTO_COUNT>
-1

> <PUBCHEM_COORDINATE_TYPE>
1
5
255

> <PUBCHEM_BONDANNOTATIONS>
17  18  8
17  19  8
18  20  8
19  22  8
20  21  8
21  22  8
21  23  8
25  26  8
25  27  8
26  29  8
27  30  8
28  29  8
28  30  8
32  33  8
32  34  8
33  35  8
34  36  8
35  37  8
36  37  8
5  20  8
5  24  8
7  23  8
7  24  8

$$$$
