52944268
  -OEChem-03202500092D

 56 60  0     0  0  0  0  0  0999 V2000
    2.0000   -2.2841    0.0000 O   0  0  0  0  0  0  0  0  0  0  0  0
    6.3301   -3.7841    0.0000 O   0  0  0  0  0  0  0  0  0  0  0  0
   15.0508    1.8341    0.0000 O   0  0  0  0  0  0  0  0  0  0  0  0
   13.7151    3.3227    0.0000 O   0  0  0  0  0  0  0  0  0  0  0  0
    3.7320   -3.2841    0.0000 N   0  0  0  0  0  0  0  0  0  0  0  0
   11.5263   -1.7841    0.0000 N   0  0  0  0  0  0  0  0  0  0  0  0
   10.6603   -0.2841    0.0000 N   0  0  0  0  0  0  0  0  0  0  0  0
   12.4725   -2.0889    0.0000 N   0  0  0  0  0  0  0  0  0  0  0  0
    2.8660   -3.7841    0.0000 C   0  0  0  0  0  0  0  0  0  0  0  0
    3.7320   -2.2841    0.0000 C   0  0  0  0  0  0  0  0  0  0  0  0
    4.5981   -3.7841    0.0000 C   0  0  0  0  0  0  0  0  0  0  0  0
    2.0000   -3.2841    0.0000 C   0  0  0  0  0  0  0  0  0  0  0  0
    2.8660   -1.7841    0.0000 C   0  0  0  0  0  0  0  0  0  0  0  0
    5.4641   -3.2841    0.0000 C   0  0  0  0  0  0  0  0  0  0  0  0
    7.1962   -3.2841    0.0000 C   0  0  0  0  0  0  0  0  0  0  0  0
    9.7942   -1.7841    0.0000 C   0  0  0  0  0  0  0  0  0  0  0  0
    8.9282   -2.2841    0.0000 C   0  0  0  0  0  0  0  0  0  0  0  0
   11.5263   -0.7841    0.0000 C   0  0  0  0  0  0  0  0  0  0  0  0
   12.4725   -0.4794    0.0000 C   0  0  0  0  0  0  0  0  0  0  0  0
   10.6603   -2.2841    0.0000 C   0  0  0  0  0  0  0  0  0  0  0  0
    8.0622   -3.7841    0.0000 C   0  0  0  0  0  0  0  0  0  0  0  0
    7.1962   -2.2841    0.0000 C   0  0  0  0  0  0  0  0  0  0  0  0
    8.9282   -3.2841    0.0000 C   0  0  0  0  0  0  0  0  0  0  0  0
    8.0622   -1.7841    0.0000 C   0  0  0  0  0  0  0  0  0  0  0  0
   12.7832    0.4711    0.0000 C   0  0  0  0  0  0  0  0  0  0  0  0
    9.7942   -0.7841    0.0000 C   0  0  0  0  0  0  0  0  0  0  0  0
   13.0561   -1.2841    0.0000 C   0  0  0  0  0  0  0  0  0  0  0  0
   13.7617    0.6773    0.0000 C   0  0  0  0  0  0  0  0  0  0  0  0
   12.1153    1.2154    0.0000 C   0  0  0  0  0  0  0  0  0  0  0  0
   14.0723    1.6278    0.0000 C   0  0  0  0  0  0  0  0  0  0  0  0
   12.4260    2.1659    0.0000 C   0  0  0  0  0  0  0  0  0  0  0  0
   13.4045    2.3722    0.0000 C   0  0  0  0  0  0  0  0  0  0  0  0
    2.4675   -4.2591    0.0000 H   0  0  0  0  0  0  0  0  0  0  0  0
    3.2646   -4.2591    0.0000 H   0  0  0  0  0  0  0  0  0  0  0  0
    4.3426   -2.3918    0.0000 H   0  0  0  0  0  0  0  0  0  0  0  0
    3.9441   -1.7015    0.0000 H   0  0  0  0  0  0  0  0  0  0  0  0
    4.1996   -4.2591    0.0000 H   0  0  0  0  0  0  0  0  0  0  0  0
    4.9966   -4.2591    0.0000 H   0  0  0  0  0  0  0  0  0  0  0  0
    1.3894   -3.1765    0.0000 H   0  0  0  0  0  0  0  0  0  0  0  0
    1.7880   -3.8668    0.0000 H   0  0  0  0  0  0  0  0  0  0  0  0
    3.2646   -1.3092    0.0000 H   0  0  0  0  0  0  0  0  0  0  0  0
    2.4675   -1.3092    0.0000 H   0  0  0  0  0  0  0  0  0  0  0  0
    5.8626   -2.8092    0.0000 H   0  0  0  0  0  0  0  0  0  0  0  0
    5.0656   -2.8092    0.0000 H   0  0  0  0  0  0  0  0  0  0  0  0
   10.6603   -2.9041    0.0000 H   0  0  0  0  0  0  0  0  0  0  0  0
    8.0622   -4.4041    0.0000 H   0  0  0  0  0  0  0  0  0  0  0  0
    6.6592   -1.9741    0.0000 H   0  0  0  0  0  0  0  0  0  0  0  0
    9.4651   -3.5941    0.0000 H   0  0  0  0  0  0  0  0  0  0  0  0
    8.0622   -1.1641    0.0000 H   0  0  0  0  0  0  0  0  0  0  0  0
    9.2573   -0.4741    0.0000 H   0  0  0  0  0  0  0  0  0  0  0  0
   13.6761   -1.2841    0.0000 H   0  0  0  0  0  0  0  0  0  0  0  0
   14.1757    0.2159    0.0000 H   0  0  0  0  0  0  0  0  0  0  0  0
   11.5086    1.0876    0.0000 H   0  0  0  0  0  0  0  0  0  0  0  0
   12.0119    2.6274    0.0000 H   0  0  0  0  0  0  0  0  0  0  0  0
   15.4649    1.3726    0.0000 H   0  0  0  0  0  0  0  0  0  0  0  0
   13.3011    3.7841    0.0000 H   0  0  0  0  0  0  0  0  0  0  0  0
  1 12  1  0  0  0  0
  1 13  1  0  0  0  0
  2 14  1  0  0  0  0
  2 15  1  0  0  0  0
  3 30  1  0  0  0  0
  3 55  1  0  0  0  0
  4 32  1  0  0  0  0
  4 56  1  0  0  0  0
  5  9  1  0  0  0  0
  5 10  1  0  0  0  0
  5 11  1  0  0  0  0
  6  8  1  0  0  0  0
  6 18  1  0  0  0  0
  6 20  1  0  0  0  0
  7 18  1  0  0  0  0
  7 26  2  0  0  0  0
  8 27  2  0  0  0  0
  9 12  1  0  0  0  0
  9 33  1  0  0  0  0
  9 34  1  0  0  0  0
 10 13  1  0  0  0  0
 10 35  1  0  0  0  0
 10 36  1  0  0  0  0
 11 14  1  0  0  0  0
 11 37  1  0  0  0  0
 11 38  1  0  0  0  0
 12 39  1  0  0  0  0
 12 40  1  0  0  0  0
 13 41  1  0  0  0  0
 13 42  1  0  0  0  0
 14 43  1  0  0  0  0
 14 44  1  0  0  0  0
 15 21  2  0  0  0  0
 15 22  1  0  0  0  0
 16 17  1  0  0  0  0
 16 20  2  0  0  0  0
 16 26  1  0  0  0  0
 17 23  2  0  0  0  0
 17 24  1  0  0  0  0
 18 19  2  0  0  0  0
 19 25  1  0  0  0  0
 19 27  1  0  0  0  0
 20 45  1  0  0  0  0
 21 23  1  0  0  0  0
 21 46  1  0  0  0  0
 22 24  2  0  0  0  0
 22 47  1  0  0  0  0
 23 48  1  0  0  0  0
 24 49  1  0  0  0  0
 25 28  2  0  0  0  0
 25 29  1  0  0  0  0
 26 50  1  0  0  0  0
 27 51  1  0  0  0  0
 28 30  1  0  0  0  0
 28 52  1  0  0  0  0
 29 31  2  0  0  0  0
 29 53  1  0  0  0  0
 30 32  2  0  0  0  0
 31 32  1  0  0  0  0
 31 54  1  0  0  0  0
M  END
> <PUBCHEM_COMPOUND_CID>
52944268

> <PUBCHEM_COMPOUND_CANONICALIZED>
1

> <PUBCHEM_CACTVS_COMPLEXITY>
584

> <PUBCHEM_CACTVS_HBOND_ACCEPTOR>
7

> <PUBCHEM_CACTVS_HBOND_DONOR>
2

> <PUBCHEM_CACTVS_ROTATABLE_BOND>
6

> <PUBCHEM_CACTVS_SUBSKEYS>
AAADceB7uAAAAAAAAAAAAAAAAAAAAWAAAAA8eIEAAAAAAFgB9AAAHgAICAAADAThmwY9tp8IFgCiAjJnZACSjCsxoKAd2CAuzJiPLuLG+VuH/CmsyBPZ+CeQ0PIOoAABAAAAQABAAAIAAACAAAAAAAAAAA==

> <PUBCHEM_IUPAC_OPENEYE_NAME>
4-[6-[4-(2-morpholinoethoxy)phenyl]pyrazolo[1,5-a]pyrimidin-3-yl]benzene-1,2-diol

> <PUBCHEM_IUPAC_CAS_NAME>
4-[6-[4-[2-(4-morpholinyl)ethoxy]phenyl]-3-pyrazolo[1,5-a]pyrimidinyl]benzene-1,2-diol

> <PUBCHEM_IUPAC_NAME_MARKUP>
4-[6-[4-(2-morpholin-4-ylethoxy)phenyl]pyrazolo[1,5-a]pyrimidin-3-yl]benzene-1,2-diol

> <PUBCHEM_IUPAC_NAME>
4-[6-[4-(2-morpholin-4-ylethoxy)phenyl]pyrazolo[1,5-a]pyrimidin-3-yl]benzene-1,2-diol

> <PUBCHEM_IUPAC_SYSTEMATIC_NAME>
4-[6-[4-(2-morpholin-4-ylethoxy)phenyl]pyrazolo[1,5-a]pyrimidin-3-yl]benzene-1,2-diol

> <PUBCHEM_IUPAC_TRADITIONAL_NAME>
4-[6-[4-(2-morpholinoethoxy)phenyl]pyrazolo[1,5-a]pyrimidin-3-yl]pyrocatechol

> <PUBCHEM_IUPAC_INCHI>
InChI=1S/C24H24N4O4/c29-22-6-3-18(13-23(22)30)21-15-26-28-16-19(14-25-24(21)28)17-1-4-20(5-2-17)32-12-9-27-7-10-31-11-8-27/h1-6,13-16,29-30H,7-12H2

> <PUBCHEM_IUPAC_INCHIKEY>
XGLLCMUCSWPKPD-UHFFFAOYSA-N

> <PUBCHEM_XLOGP3_AA>
2.5

> <PUBCHEM_EXACT_MASS>
432.17975526

> <PUBCHEM_MOLECULAR_FORMULA>
C24H24N4O4

> <PUBCHEM_MOLECULAR_WEIGHT>
432.5

> <PUBCHEM_SMILES>
C1COCCN1CCOC2=CC=C(C=C2)C3=CN4C(=C(C=N4)C5=CC(=C(C=C5)O)O)N=C3

> <PUBCHEM_OPENEYE_CAN_SMILES>
C1COCCN1CCOC2=CC=C(C=C2)C3=CN4C(=C(C=N4)C5=CC(=C(C=C5)O)O)N=C3

> <PUBCHEM_OPENEYE_ISO_SMILES>
C1COCCN1CCOC2=CC=C(C=C2)C3=CN4C(=C(C=N4)C5=CC(=C(C=C5)O)O)N=C3

> <PUBCHEM_CACTVS_TPSA>
92.4

> <PUBCHEM_MONOISOTOPIC_WEIGHT>
432.17975526

> <PUBCHEM_TOTAL_CHARGE>
0

> <PUBCHEM_HEAVY_ATOM_COUNT>
32

> <PUBCHEM_ATOM_DEF_STEREO_COUNT>
0

> <PUBCHEM_ATOM_UDEF_STEREO_COUNT>
0

> <PUBCHEM_BOND_DEF_STEREO_COUNT>
0

> <PUBCHEM_BOND_UDEF_STEREO_COUNT>
0

> <PUBCHEM_ISOTOPIC_ATOM_COUNT>
0

> <PUBCHEM_COMPONENT_COUNT>
1

> <PUBCHEM_CACTVS_TAUTO_COUNT>
-1

> <PUBCHEM_COORDINATE_TYPE>
1
5
255

> <PUBCHEM_BONDANNOTATIONS>
15  21  8
15  22  8
16  20  8
16  26  8
17  23  8
17  24  8
18  19  8
19  27  8
21  23  8
22  24  8
25  28  8
25  29  8
28  30  8
29  31  8
30  32  8
31  32  8
6  18  8
6  20  8
6  8  8
7  18  8
7  26  8
8  27  8

$$$$
