49831041
  -OEChem-03202503542D

 32 34  0     1  0  0  0  0  0999 V2000
    4.9889    2.9927    0.0000 I   0  0  0  0  0  0  0  0  0  0  0  0
    5.9405   -0.8252    0.0000 O   0  0  0  0  0  0  0  0  0  0  0  0
    3.4026   -1.3296    0.0000 O   0  0  0  0  0  0  0  0  0  0  0  0
    4.6844   -3.0874    0.0000 O   0  0  0  0  0  0  0  0  0  0  0  0
    7.6651   -2.0032    0.0000 O   0  0  0  0  0  0  0  0  0  0  0  0
    4.6783    0.4327    0.0000 N   0  0  0  0  0  0  0  0  0  0  0  0
    5.2619    1.2374    0.0000 N   0  0  0  0  0  0  0  0  0  0  0  0
    2.8660    0.2375    0.0000 N   0  0  0  0  0  0  0  0  0  0  0  0
    2.0000    1.7374    0.0000 N   0  0  0  0  0  0  0  0  0  0  0  0
    2.8660    3.2374    0.0000 N   0  0  0  0  0  0  0  0  0  0  0  0
    4.4026   -1.3278    0.0000 C   0  0  3  0  0  0  0  0  0  0  0  0
    4.9917   -2.1358    0.0000 C   0  0  3  0  0  0  0  0  0  0  0  0
    4.9889   -0.5178    0.0000 C   0  0  3  0  0  0  0  0  0  0  0  0
    5.9422   -1.8252    0.0000 C   0  0  3  0  0  0  0  0  0  0  0  0
    6.7523   -2.4116    0.0000 C   0  0  0  0  0  0  0  0  0  0  0  0
    3.7320    0.7375    0.0000 C   0  0  0  0  0  0  0  0  0  0  0  0
    3.7320    1.7374    0.0000 C   0  0  0  0  0  0  0  0  0  0  0  0
    4.6783    2.0422    0.0000 C   0  0  0  0  0  0  0  0  0  0  0  0
    2.8660    2.2374    0.0000 C   0  0  0  0  0  0  0  0  0  0  0  0
    2.0000    0.7375    0.0000 C   0  0  0  0  0  0  0  0  0  0  0  0
    4.1220   -1.8807    0.0000 H   0  0  0  0  0  0  0  0  0  0  0  0
    5.4266   -0.0786    0.0000 H   0  0  0  0  0  0  0  0  0  0  0  0
    5.4309   -2.5735    0.0000 H   0  0  0  0  0  0  0  0  0  0  0  0
    6.4942   -1.5427    0.0000 H   0  0  0  0  0  0  0  0  0  0  0  0
    6.3070   -2.8430    0.0000 H   0  0  0  0  0  0  0  0  0  0  0  0
    7.0999   -2.9250    0.0000 H   0  0  0  0  0  0  0  0  0  0  0  0
    3.0935   -1.8670    0.0000 H   0  0  0  0  0  0  0  0  0  0  0  0
    5.1000   -3.5474    0.0000 H   0  0  0  0  0  0  0  0  0  0  0  0
    8.1674   -2.3668    0.0000 H   0  0  0  0  0  0  0  0  0  0  0  0
    1.4631    0.4275    0.0000 H   0  0  0  0  0  0  0  0  0  0  0  0
    2.3291    3.5474    0.0000 H   0  0  0  0  0  0  0  0  0  0  0  0
    3.4030    3.5474    0.0000 H   0  0  0  0  0  0  0  0  0  0  0  0
  1 18  1  0  0  0  0
  2 13  1  0  0  0  0
  2 14  1  0  0  0  0
  3 11  1  0  0  0  0
  3 27  1  0  0  0  0
  4 12  1  0  0  0  0
  4 28  1  0  0  0  0
  5 15  1  0  0  0  0
  5 29  1  0  0  0  0
  6  7  1  0  0  0  0
  6 13  1  0  0  0  0
  6 16  1  0  0  0  0
  7 18  2  0  0  0  0
  8 16  2  0  0  0  0
  8 20  1  0  0  0  0
  9 19  1  0  0  0  0
  9 20  2  0  0  0  0
 10 19  1  0  0  0  0
 10 31  1  0  0  0  0
 10 32  1  0  0  0  0
 11 12  1  0  0  0  0
 11 13  1  0  0  0  0
 11 21  1  0  0  0  0
 12 14  1  0  0  0  0
 12 23  1  0  0  0  0
 13 22  1  0  0  0  0
 14 15  1  0  0  0  0
 14 24  1  0  0  0  0
 15 25  1  0  0  0  0
 15 26  1  0  0  0  0
 16 17  1  0  0  0  0
 17 18  1  0  0  0  0
 17 19  2  0  0  0  0
 20 30  1  0  0  0  0
M  END
> <PUBCHEM_COMPOUND_CID>
49831041

> <PUBCHEM_COMPOUND_CANONICALIZED>
1

> <PUBCHEM_CACTVS_COMPLEXITY>
367

> <PUBCHEM_CACTVS_HBOND_ACCEPTOR>
8

> <PUBCHEM_CACTVS_HBOND_DONOR>
4

> <PUBCHEM_CACTVS_ROTATABLE_BOND>
2

> <PUBCHEM_CACTVS_SUBSKEYS>
AAADccBzuAAAAgAAAAAAAAAAAAAAAWJAAAAsAAAAAAAAAFgB+AAAHgA4CAAADBTjmwYFsN5IFgCiAgJhZACQhCsRgKAVUCAoRBCDGAJAyEAOxAgPCALTACDwMAIAAAAAAAAAAAAAAAAAAAAAAAAAAAAAAA==

> <PUBCHEM_IUPAC_OPENEYE_NAME>
2-(4-amino-3-iodo-pyrazolo[3,4-d]pyrimidin-1-yl)-5-(hydroxymethyl)tetrahydrofuran-3,4-diol

> <PUBCHEM_IUPAC_CAS_NAME>
2-(4-amino-3-iodo-1-pyrazolo[3,4-d]pyrimidinyl)-5-(hydroxymethyl)oxolane-3,4-diol

> <PUBCHEM_IUPAC_NAME_MARKUP>
2-(4-amino-3-iodopyrazolo[3,4-d]pyrimidin-1-yl)-5-(hydroxymethyl)oxolane-3,4-diol

> <PUBCHEM_IUPAC_NAME>
2-(4-amino-3-iodopyrazolo[3,4-d]pyrimidin-1-yl)-5-(hydroxymethyl)oxolane-3,4-diol

> <PUBCHEM_IUPAC_SYSTEMATIC_NAME>
2-(4-azanyl-3-iodanyl-pyrazolo[3,4-d]pyrimidin-1-yl)-5-(hydroxymethyl)oxolane-3,4-diol

> <PUBCHEM_IUPAC_TRADITIONAL_NAME>
2-(4-amino-3-iodo-pyrazolo[3,4-d]pyrimidin-1-yl)-5-methylol-tetrahydrofuran-3,4-diol

> <PUBCHEM_IUPAC_INCHI>
InChI=1S/C10H12IN5O4/c11-7-4-8(12)13-2-14-9(4)16(15-7)10-6(19)5(18)3(1-17)20-10/h2-3,5-6,10,17-19H,1H2,(H2,12,13,14)

> <PUBCHEM_IUPAC_INCHIKEY>
BZFGDXJGWSIYQP-UHFFFAOYSA-N

> <PUBCHEM_XLOGP3_AA>
-1.1

> <PUBCHEM_EXACT_MASS>
392.99340

> <PUBCHEM_MOLECULAR_FORMULA>
C10H12IN5O4

> <PUBCHEM_MOLECULAR_WEIGHT>
393.14

> <PUBCHEM_SMILES>
C1=NC(=C2C(=N1)N(N=C2I)C3C(C(C(O3)CO)O)O)N

> <PUBCHEM_OPENEYE_CAN_SMILES>
C1=NC(=C2C(=N1)N(N=C2I)C3C(C(C(O3)CO)O)O)N

> <PUBCHEM_OPENEYE_ISO_SMILES>
C1=NC(=C2C(=N1)N(N=C2I)C3C(C(C(O3)CO)O)O)N

> <PUBCHEM_CACTVS_TPSA>
140

> <PUBCHEM_MONOISOTOPIC_WEIGHT>
392.99340

> <PUBCHEM_TOTAL_CHARGE>
0

> <PUBCHEM_HEAVY_ATOM_COUNT>
20

> <PUBCHEM_ATOM_DEF_STEREO_COUNT>
0

> <PUBCHEM_ATOM_UDEF_STEREO_COUNT>
4

> <PUBCHEM_BOND_DEF_STEREO_COUNT>
0

> <PUBCHEM_BOND_UDEF_STEREO_COUNT>
0

> <PUBCHEM_ISOTOPIC_ATOM_COUNT>
0

> <PUBCHEM_COMPONENT_COUNT>
1

> <PUBCHEM_CACTVS_TAUTO_COUNT>
-1

> <PUBCHEM_COORDINATE_TYPE>
1
5
255

> <PUBCHEM_BONDANNOTATIONS>
14  15  3
16  17  8
17  18  8
17  19  8
11  3  3
12  4  3
13  6  3
6  16  8
6  7  8
7  18  8
8  16  8
8  20  8
9  19  8
9  20  8

$$$$
