49830466
  -OEChem-03202502092D

 52 56  0     0  0  0  0  0  0999 V2000
   12.2486   -1.2366    0.0000 O   0  0  0  0  0  0  0  0  0  0  0  0
   10.8664    2.8973    0.0000 O   0  0  0  0  0  0  0  0  0  0  0  0
    5.1646   -1.1174    0.0000 N   0  0  0  0  0  0  0  0  0  0  0  0
   10.2916   -3.2585    0.0000 N   0  0  0  0  0  0  0  0  0  0  0  0
   10.8752   -2.4538    0.0000 N   0  0  0  0  0  0  0  0  0  0  0  0
   10.6022   -0.6985    0.0000 N   0  0  0  0  0  0  0  0  0  0  0  0
    6.6428   -0.4593    0.0000 N   0  0  0  0  0  0  0  0  0  0  0  0
    5.6646   -0.2514    0.0000 N   0  0  0  0  0  0  0  0  0  0  0  0
    9.3454   -1.9538    0.0000 C   0  0  0  0  0  0  0  0  0  0  0  0
    9.3454   -2.9538    0.0000 C   0  0  0  0  0  0  0  0  0  0  0  0
    7.6133   -1.9538    0.0000 C   0  0  0  0  0  0  0  0  0  0  0  0
    8.4793   -1.4538    0.0000 C   0  0  0  0  0  0  0  0  0  0  0  0
   10.2916   -1.6491    0.0000 C   0  0  0  0  0  0  0  0  0  0  0  0
    6.7473   -1.4538    0.0000 C   0  0  0  0  0  0  0  0  0  0  0  0
    8.4793   -3.4538    0.0000 C   0  0  0  0  0  0  0  0  0  0  0  0
    7.6133   -2.9538    0.0000 C   0  0  0  0  0  0  0  0  0  0  0  0
    4.1701   -1.2219    0.0000 C   0  0  0  0  0  0  0  0  0  0  0  0
    5.8338   -1.8605    0.0000 C   0  0  0  0  0  0  0  0  0  0  0  0
    3.5823   -0.4129    0.0000 C   0  0  0  0  0  0  0  0  0  0  0  0
   11.5808   -0.4923    0.0000 C   0  0  0  0  0  0  0  0  0  0  0  0
   11.8914    0.4582    0.0000 C   0  0  0  0  0  0  0  0  0  0  0  0
    2.5878   -0.5174    0.0000 C   0  0  0  0  0  0  0  0  0  0  0  0
    3.9890    0.5007    0.0000 C   0  0  0  0  0  0  0  0  0  0  0  0
    2.0000    0.2916    0.0000 C   0  0  0  0  0  0  0  0  0  0  0  0
    3.4013    1.3097    0.0000 C   0  0  0  0  0  0  0  0  0  0  0  0
   11.2236    1.2025    0.0000 C   0  0  0  0  0  0  0  0  0  0  0  0
   12.8699    0.6644    0.0000 C   0  0  0  0  0  0  0  0  0  0  0  0
    2.4067    1.2051    0.0000 C   0  0  0  0  0  0  0  0  0  0  0  0
   11.5342    2.1530    0.0000 C   0  0  0  0  0  0  0  0  0  0  0  0
   13.1806    1.6149    0.0000 C   0  0  0  0  0  0  0  0  0  0  0  0
   12.5127    2.3592    0.0000 C   0  0  0  0  0  0  0  0  0  0  0  0
   11.1771    3.8478    0.0000 C   0  0  0  0  0  0  0  0  0  0  0  0
    8.4793   -0.8338    0.0000 H   0  0  0  0  0  0  0  0  0  0  0  0
    8.4793   -4.0738    0.0000 H   0  0  0  0  0  0  0  0  0  0  0  0
    7.0764   -3.2638    0.0000 H   0  0  0  0  0  0  0  0  0  0  0  0
    3.6128   -1.4937    0.0000 H   0  0  0  0  0  0  0  0  0  0  0  0
    4.3410   -1.8179    0.0000 H   0  0  0  0  0  0  0  0  0  0  0  0
   10.4842   -3.8478    0.0000 H   0  0  0  0  0  0  0  0  0  0  0  0
    5.7048   -2.4670    0.0000 H   0  0  0  0  0  0  0  0  0  0  0  0
   10.1882   -0.2371    0.0000 H   0  0  0  0  0  0  0  0  0  0  0  0
    2.3356   -1.0838    0.0000 H   0  0  0  0  0  0  0  0  0  0  0  0
    4.6056    0.5655    0.0000 H   0  0  0  0  0  0  0  0  0  0  0  0
   10.6169    1.0747    0.0000 H   0  0  0  0  0  0  0  0  0  0  0  0
    1.3834    0.2268    0.0000 H   0  0  0  0  0  0  0  0  0  0  0  0
    3.6534    1.8761    0.0000 H   0  0  0  0  0  0  0  0  0  0  0  0
   13.2840    0.2030    0.0000 H   0  0  0  0  0  0  0  0  0  0  0  0
    2.0423    1.7067    0.0000 H   0  0  0  0  0  0  0  0  0  0  0  0
   13.7873    1.7428    0.0000 H   0  0  0  0  0  0  0  0  0  0  0  0
   12.7054    2.9486    0.0000 H   0  0  0  0  0  0  0  0  0  0  0  0
   11.7664    3.6552    0.0000 H   0  0  0  0  0  0  0  0  0  0  0  0
   11.3697    4.4372    0.0000 H   0  0  0  0  0  0  0  0  0  0  0  0
   10.5877    4.0405    0.0000 H   0  0  0  0  0  0  0  0  0  0  0  0
  1 20  2  0  0  0  0
  2 29  1  0  0  0  0
  2 32  1  0  0  0  0
  3  8  1  0  0  0  0
  3 17  1  0  0  0  0
  3 18  1  0  0  0  0
  4  5  1  0  0  0  0
  4 10  1  0  0  0  0
  4 38  1  0  0  0  0
  5 13  2  0  0  0  0
  6 13  1  0  0  0  0
  6 20  1  0  0  0  0
  6 40  1  0  0  0  0
  7  8  2  0  0  0  0
  7 14  1  0  0  0  0
  9 10  2  0  0  0  0
  9 12  1  0  0  0  0
  9 13  1  0  0  0  0
 10 15  1  0  0  0  0
 11 12  2  0  0  0  0
 11 14  1  0  0  0  0
 11 16  1  0  0  0  0
 12 33  1  0  0  0  0
 14 18  2  0  0  0  0
 15 16  2  0  0  0  0
 15 34  1  0  0  0  0
 16 35  1  0  0  0  0
 17 19  1  0  0  0  0
 17 36  1  0  0  0  0
 17 37  1  0  0  0  0
 18 39  1  0  0  0  0
 19 22  2  0  0  0  0
 19 23  1  0  0  0  0
 20 21  1  0  0  0  0
 21 26  2  0  0  0  0
 21 27  1  0  0  0  0
 22 24  1  0  0  0  0
 22 41  1  0  0  0  0
 23 25  2  0  0  0  0
 23 42  1  0  0  0  0
 24 28  2  0  0  0  0
 24 44  1  0  0  0  0
 25 28  1  0  0  0  0
 25 45  1  0  0  0  0
 26 29  1  0  0  0  0
 26 43  1  0  0  0  0
 27 30  2  0  0  0  0
 27 46  1  0  0  0  0
 28 47  1  0  0  0  0
 29 31  2  0  0  0  0
 30 31  1  0  0  0  0
 30 48  1  0  0  0  0
 31 49  1  0  0  0  0
 32 50  1  0  0  0  0
 32 51  1  0  0  0  0
 32 52  1  0  0  0  0
M  END
> <PUBCHEM_COMPOUND_CID>
49830466

> <PUBCHEM_COMPOUND_CANONICALIZED>
1

> <PUBCHEM_CACTVS_COMPLEXITY>
630

> <PUBCHEM_CACTVS_HBOND_ACCEPTOR>
5

> <PUBCHEM_CACTVS_HBOND_DONOR>
2

> <PUBCHEM_CACTVS_ROTATABLE_BOND>
6

> <PUBCHEM_CACTVS_SUBSKEYS>
AAADceB7sAAAAAAAAAAAAAAAAAAAAWLAAAAwYMAAAAAAAFgB/AAAHgAYAAAADAzBngY/9vLrBACqAzd3dACSDAY1sgAd+SE+fNiMZrLE/duUtSh03RPI6Ye6yNCOCAADAAACAAAQAAYAAAQAAAAAAAAAAA==

> <PUBCHEM_IUPAC_OPENEYE_NAME>
N-[5-(1-benzyltriazol-4-yl)-1H-indazol-3-yl]-3-methoxy-benzamide

> <PUBCHEM_IUPAC_CAS_NAME>
3-methoxy-N-[5-[1-(phenylmethyl)-4-triazolyl]-1H-indazol-3-yl]benzamide

> <PUBCHEM_IUPAC_NAME_MARKUP>
<I>N</I>-[5-(1-benzyltriazol-4-yl)-1<I>H</I>-indazol-3-yl]-3-methoxybenzamide

> <PUBCHEM_IUPAC_NAME>
N-[5-(1-benzyltriazol-4-yl)-1H-indazol-3-yl]-3-methoxybenzamide

> <PUBCHEM_IUPAC_SYSTEMATIC_NAME>
3-methoxy-N-[5-[1-(phenylmethyl)-1,2,3-triazol-4-yl]-1H-indazol-3-yl]benzamide

> <PUBCHEM_IUPAC_TRADITIONAL_NAME>
N-[5-(1-benzyltriazol-4-yl)-1H-indazol-3-yl]-3-methoxy-benzamide

> <PUBCHEM_IUPAC_INCHI>
InChI=1S/C24H20N6O2/c1-32-19-9-5-8-18(12-19)24(31)25-23-20-13-17(10-11-21(20)26-28-23)22-15-30(29-27-22)14-16-6-3-2-4-7-16/h2-13,15H,14H2,1H3,(H2,25,26,28,31)

> <PUBCHEM_IUPAC_INCHIKEY>
CYLGCMABIBXHIQ-UHFFFAOYSA-N

> <PUBCHEM_XLOGP3_AA>
3.7

> <PUBCHEM_EXACT_MASS>
424.16477390

> <PUBCHEM_MOLECULAR_FORMULA>
C24H20N6O2

> <PUBCHEM_MOLECULAR_WEIGHT>
424.5

> <PUBCHEM_SMILES>
COC1=CC=CC(=C1)C(=O)NC2=NNC3=C2C=C(C=C3)C4=CN(N=N4)CC5=CC=CC=C5

> <PUBCHEM_OPENEYE_CAN_SMILES>
COC1=CC=CC(=C1)C(=O)NC2=NNC3=C2C=C(C=C3)C4=CN(N=N4)CC5=CC=CC=C5

> <PUBCHEM_OPENEYE_ISO_SMILES>
COC1=CC=CC(=C1)C(=O)NC2=NNC3=C2C=C(C=C3)C4=CN(N=N4)CC5=CC=CC=C5

> <PUBCHEM_CACTVS_TPSA>
97.7

> <PUBCHEM_MONOISOTOPIC_WEIGHT>
424.16477390

> <PUBCHEM_TOTAL_CHARGE>
0

> <PUBCHEM_HEAVY_ATOM_COUNT>
32

> <PUBCHEM_ATOM_DEF_STEREO_COUNT>
0

> <PUBCHEM_ATOM_UDEF_STEREO_COUNT>
0

> <PUBCHEM_BOND_DEF_STEREO_COUNT>
0

> <PUBCHEM_BOND_UDEF_STEREO_COUNT>
0

> <PUBCHEM_ISOTOPIC_ATOM_COUNT>
0

> <PUBCHEM_COMPONENT_COUNT>
1

> <PUBCHEM_CACTVS_TAUTO_COUNT>
-1

> <PUBCHEM_COORDINATE_TYPE>
1
5
255

> <PUBCHEM_BONDANNOTATIONS>
10  15  8
11  12  8
11  16  8
14  18  8
15  16  8
19  22  8
19  23  8
21  26  8
21  27  8
22  24  8
23  25  8
24  28  8
25  28  8
26  29  8
27  30  8
29  31  8
3  18  8
3  8  8
30  31  8
4  10  8
4  5  8
5  13  8
7  14  8
7  8  8
9  10  8
9  12  8
9  13  8

$$$$
