49830886
  -OEChem-03202503402D

 44 48  0     0  0  0  0  0  0999 V2000
    8.1424    0.0005    0.0000 S   0  0  0  0  0  0  0  0  0  0  0  0
    3.8814   -2.0312    0.0000 N   0  0  0  0  0  0  0  0  0  0  0  0
    4.5506   -1.2880    0.0000 N   0  0  0  0  0  0  0  0  0  0  0  0
    6.3301   -1.1948    0.0000 N   0  0  0  0  0  0  0  0  0  0  0  0
    5.4641    0.3052    0.0000 N   0  0  0  0  0  0  0  0  0  0  0  0
    4.5981    1.8052    0.0000 N   0  0  0  0  0  0  0  0  0  0  0  0
    6.3301    1.8052    0.0000 N   0  0  0  0  0  0  0  0  0  0  0  0
    3.9747   -3.8107    0.0000 C   0  0  0  0  0  0  0  0  0  0  0  0
    3.1657   -4.3985    0.0000 C   0  0  0  0  0  0  0  0  0  0  0  0
    4.0792   -4.8052    0.0000 C   0  0  0  0  0  0  0  0  0  0  0  0
    4.3814   -2.8972    0.0000 C   0  0  0  0  0  0  0  0  0  0  0  0
    5.3596   -2.6893    0.0000 C   0  0  0  0  0  0  0  0  0  0  0  0
    5.4641   -1.6948    0.0000 C   0  0  0  0  0  0  0  0  0  0  0  0
    6.3301   -0.1948    0.0000 C   0  0  0  0  0  0  0  0  0  0  0  0
    7.1962    0.3052    0.0000 C   0  0  0  0  0  0  0  0  0  0  0  0
    7.1962    1.3052    0.0000 C   0  0  0  0  0  0  0  0  0  0  0  0
    5.4641    1.3052    0.0000 C   0  0  0  0  0  0  0  0  0  0  0  0
    4.5981    2.8052    0.0000 C   0  0  0  0  0  0  0  0  0  0  0  0
    8.1424    1.6100    0.0000 C   0  0  0  0  0  0  0  0  0  0  0  0
    3.7320    3.3052    0.0000 C   0  0  0  0  0  0  0  0  0  0  0  0
    8.7260    0.8052    0.0000 C   0  0  0  0  0  0  0  0  0  0  0  0
    3.7320    4.3052    0.0000 C   0  0  0  0  0  0  0  0  0  0  0  0
    2.8660    2.8052    0.0000 C   0  0  0  0  0  0  0  0  0  0  0  0
    2.8660    4.8052    0.0000 C   0  0  0  0  0  0  0  0  0  0  0  0
    2.0000    3.3052    0.0000 C   0  0  0  0  0  0  0  0  0  0  0  0
    2.0000    4.3052    0.0000 C   0  0  0  0  0  0  0  0  0  0  0  0
    4.5871   -3.9077    0.0000 H   0  0  0  0  0  0  0  0  0  0  0  0
    2.7197   -3.9678    0.0000 H   0  0  0  0  0  0  0  0  0  0  0  0
    2.8190   -4.9125    0.0000 H   0  0  0  0  0  0  0  0  0  0  0  0
    3.9292   -5.4068    0.0000 H   0  0  0  0  0  0  0  0  0  0  0  0
    4.6977   -4.8485    0.0000 H   0  0  0  0  0  0  0  0  0  0  0  0
    5.8203   -3.1041    0.0000 H   0  0  0  0  0  0  0  0  0  0  0  0
    3.2648   -1.9664    0.0000 H   0  0  0  0  0  0  0  0  0  0  0  0
    6.8671   -1.5048    0.0000 H   0  0  0  0  0  0  0  0  0  0  0  0
    5.2087    2.6976    0.0000 H   0  0  0  0  0  0  0  0  0  0  0  0
    4.8101    3.3879    0.0000 H   0  0  0  0  0  0  0  0  0  0  0  0
    4.0611    1.4952    0.0000 H   0  0  0  0  0  0  0  0  0  0  0  0
    8.3350    2.1993    0.0000 H   0  0  0  0  0  0  0  0  0  0  0  0
    9.3460    0.8052    0.0000 H   0  0  0  0  0  0  0  0  0  0  0  0
    4.2690    4.6152    0.0000 H   0  0  0  0  0  0  0  0  0  0  0  0
    2.8660    2.1852    0.0000 H   0  0  0  0  0  0  0  0  0  0  0  0
    2.8660    5.4252    0.0000 H   0  0  0  0  0  0  0  0  0  0  0  0
    1.4631    2.9952    0.0000 H   0  0  0  0  0  0  0  0  0  0  0  0
    1.4631    4.6152    0.0000 H   0  0  0  0  0  0  0  0  0  0  0  0
  1 15  1  0  0  0  0
  1 21  1  0  0  0  0
  2  3  1  0  0  0  0
  2 11  1  0  0  0  0
  2 33  1  0  0  0  0
  3 13  2  0  0  0  0
  4 13  1  0  0  0  0
  4 14  1  0  0  0  0
  4 34  1  0  0  0  0
  5 14  2  0  0  0  0
  5 17  1  0  0  0  0
  6 17  1  0  0  0  0
  6 18  1  0  0  0  0
  6 37  1  0  0  0  0
  7 16  1  0  0  0  0
  7 17  2  0  0  0  0
  8  9  1  0  0  0  0
  8 10  1  0  0  0  0
  8 11  1  0  0  0  0
  8 27  1  0  0  0  0
  9 10  1  0  0  0  0
  9 28  1  0  0  0  0
  9 29  1  0  0  0  0
 10 30  1  0  0  0  0
 10 31  1  0  0  0  0
 11 12  2  0  0  0  0
 12 13  1  0  0  0  0
 12 32  1  0  0  0  0
 14 15  1  0  0  0  0
 15 16  2  0  0  0  0
 16 19  1  0  0  0  0
 18 20  1  0  0  0  0
 18 35  1  0  0  0  0
 18 36  1  0  0  0  0
 19 21  2  0  0  0  0
 19 38  1  0  0  0  0
 20 22  2  0  0  0  0
 20 23  1  0  0  0  0
 21 39  1  0  0  0  0
 22 24  1  0  0  0  0
 22 40  1  0  0  0  0
 23 25  2  0  0  0  0
 23 41  1  0  0  0  0
 24 26  2  0  0  0  0
 24 42  1  0  0  0  0
 25 26  1  0  0  0  0
 25 43  1  0  0  0  0
 26 44  1  0  0  0  0
M  END
> <PUBCHEM_COMPOUND_CID>
49830886

> <PUBCHEM_COMPOUND_CANONICALIZED>
1

> <PUBCHEM_CACTVS_COMPLEXITY>
469

> <PUBCHEM_CACTVS_HBOND_ACCEPTOR>
6

> <PUBCHEM_CACTVS_HBOND_DONOR>
3

> <PUBCHEM_CACTVS_ROTATABLE_BOND>
6

> <PUBCHEM_CACTVS_SUBSKEYS>
AAADceB7gABAAAAAAAAAAAAAGAAAAWJAAAA8QAAAAAAAAFgB/gAAHAQYAAAADQjFXgSx8bbrEAimAyZiZACTpKshCrBdubw4ZJiIKOLg2dGEpAx4mALoyCcQgAAOAAAAAAAAAAAAAAAAAAAAAAAAAAAAAA==

> <PUBCHEM_IUPAC_OPENEYE_NAME>
N2-benzyl-N4-(5-cyclopropyl-1H-pyrazol-3-yl)thieno[3,2-d]pyrimidine-2,4-diamine

> <PUBCHEM_IUPAC_CAS_NAME>
N4-(5-cyclopropyl-1H-pyrazol-3-yl)-N2-(phenylmethyl)thieno[3,2-d]pyrimidine-2,4-diamine

> <PUBCHEM_IUPAC_NAME_MARKUP>
2-<I>N</I>-benzyl-4-<I>N</I>-(5-cyclopropyl-1<I>H</I>-pyrazol-3-yl)thieno[3,2-d]pyrimidine-2,4-diamine

> <PUBCHEM_IUPAC_NAME>
2-N-benzyl-4-N-(5-cyclopropyl-1H-pyrazol-3-yl)thieno[3,2-d]pyrimidine-2,4-diamine

> <PUBCHEM_IUPAC_SYSTEMATIC_NAME>
N4-(5-cyclopropyl-1H-pyrazol-3-yl)-N2-(phenylmethyl)thieno[3,2-d]pyrimidine-2,4-diamine

> <PUBCHEM_IUPAC_TRADITIONAL_NAME>
benzyl-[4-[(5-cyclopropyl-1H-pyrazol-3-yl)amino]thieno[3,2-d]pyrimidin-2-yl]amine

> <PUBCHEM_IUPAC_INCHI>
InChI=1S/C19H18N6S/c1-2-4-12(5-3-1)11-20-19-21-14-8-9-26-17(14)18(23-19)22-16-10-15(24-25-16)13-6-7-13/h1-5,8-10,13H,6-7,11H2,(H3,20,21,22,23,24,25)

> <PUBCHEM_IUPAC_INCHIKEY>
TVUWQDLBEOZVOU-UHFFFAOYSA-N

> <PUBCHEM_XLOGP3_AA>
4.2

> <PUBCHEM_EXACT_MASS>
362.13136577

> <PUBCHEM_MOLECULAR_FORMULA>
C19H18N6S

> <PUBCHEM_MOLECULAR_WEIGHT>
362.5

> <PUBCHEM_SMILES>
C1CC1C2=CC(=NN2)NC3=NC(=NC4=C3SC=C4)NCC5=CC=CC=C5

> <PUBCHEM_OPENEYE_CAN_SMILES>
C1CC1C2=CC(=NN2)NC3=NC(=NC4=C3SC=C4)NCC5=CC=CC=C5

> <PUBCHEM_OPENEYE_ISO_SMILES>
C1CC1C2=CC(=NN2)NC3=NC(=NC4=C3SC=C4)NCC5=CC=CC=C5

> <PUBCHEM_CACTVS_TPSA>
107

> <PUBCHEM_MONOISOTOPIC_WEIGHT>
362.13136577

> <PUBCHEM_TOTAL_CHARGE>
0

> <PUBCHEM_HEAVY_ATOM_COUNT>
26

> <PUBCHEM_ATOM_DEF_STEREO_COUNT>
0

> <PUBCHEM_ATOM_UDEF_STEREO_COUNT>
0

> <PUBCHEM_BOND_DEF_STEREO_COUNT>
0

> <PUBCHEM_BOND_UDEF_STEREO_COUNT>
0

> <PUBCHEM_ISOTOPIC_ATOM_COUNT>
0

> <PUBCHEM_COMPONENT_COUNT>
1

> <PUBCHEM_CACTVS_TAUTO_COUNT>
-1

> <PUBCHEM_COORDINATE_TYPE>
1
5
255

> <PUBCHEM_BONDANNOTATIONS>
1  15  8
1  21  8
11  12  8
12  13  8
14  15  8
15  16  8
16  19  8
19  21  8
2  11  8
2  3  8
20  22  8
20  23  8
22  24  8
23  25  8
24  26  8
25  26  8
3  13  8
5  14  8
5  17  8
7  16  8
7  17  8

$$$$
