15504063
  -OEChem-03202502242D

 26 28  0     0  0  0  0  0  0999 V2000
    8.8600   -0.5530    0.0000 O   0  0  0  0  0  0  0  0  0  0  0  0
    7.2764   -1.3577    0.0000 N   0  0  0  0  0  0  0  0  0  0  0  0
    5.4641   -1.5530    0.0000 N   0  0  0  0  0  0  0  0  0  0  0  0
    6.3301   -0.0530    0.0000 C   0  0  0  0  0  0  0  0  0  0  0  0
    7.2764    0.2518    0.0000 C   0  0  0  0  0  0  0  0  0  0  0  0
    6.3301   -1.0530    0.0000 C   0  0  0  0  0  0  0  0  0  0  0  0
    5.4641    0.4470    0.0000 C   0  0  0  0  0  0  0  0  0  0  0  0
    4.5981   -0.0530    0.0000 C   0  0  0  0  0  0  0  0  0  0  0  0
    7.8600   -0.5530    0.0000 C   0  0  0  0  0  0  0  0  0  0  0  0
    3.7320    0.4470    0.0000 C   0  0  0  0  0  0  0  0  0  0  0  0
    4.5981   -1.0530    0.0000 C   0  0  0  0  0  0  0  0  0  0  0  0
    2.8660   -0.0530    0.0000 C   0  0  0  0  0  0  0  0  0  0  0  0
    3.7320    1.4470    0.0000 C   0  0  0  0  0  0  0  0  0  0  0  0
    2.0000    0.4470    0.0000 C   0  0  0  0  0  0  0  0  0  0  0  0
    2.8660    1.9470    0.0000 C   0  0  0  0  0  0  0  0  0  0  0  0
    2.0000    1.4470    0.0000 C   0  0  0  0  0  0  0  0  0  0  0  0
    7.8137    0.5610    0.0000 H   0  0  0  0  0  0  0  0  0  0  0  0
    7.0253    0.8187    0.0000 H   0  0  0  0  0  0  0  0  0  0  0  0
    5.4641    1.0670    0.0000 H   0  0  0  0  0  0  0  0  0  0  0  0
    7.4690   -1.9470    0.0000 H   0  0  0  0  0  0  0  0  0  0  0  0
    4.0611   -1.3630    0.0000 H   0  0  0  0  0  0  0  0  0  0  0  0
    2.8660   -0.6730    0.0000 H   0  0  0  0  0  0  0  0  0  0  0  0
    4.2690    1.7570    0.0000 H   0  0  0  0  0  0  0  0  0  0  0  0
    1.4631    0.1370    0.0000 H   0  0  0  0  0  0  0  0  0  0  0  0
    2.8660    2.5670    0.0000 H   0  0  0  0  0  0  0  0  0  0  0  0
    1.4631    1.7570    0.0000 H   0  0  0  0  0  0  0  0  0  0  0  0
  1  9  2  0  0  0  0
  2  6  1  0  0  0  0
  2  9  1  0  0  0  0
  2 20  1  0  0  0  0
  3  6  1  0  0  0  0
  3 11  2  0  0  0  0
  4  5  1  0  0  0  0
  4  6  2  0  0  0  0
  4  7  1  0  0  0  0
  5  9  1  0  0  0  0
  5 17  1  0  0  0  0
  5 18  1  0  0  0  0
  7  8  2  0  0  0  0
  7 19  1  0  0  0  0
  8 10  1  0  0  0  0
  8 11  1  0  0  0  0
 10 12  2  0  0  0  0
 10 13  1  0  0  0  0
 11 21  1  0  0  0  0
 12 14  1  0  0  0  0
 12 22  1  0  0  0  0
 13 15  2  0  0  0  0
 13 23  1  0  0  0  0
 14 16  2  0  0  0  0
 14 24  1  0  0  0  0
 15 16  1  0  0  0  0
 15 25  1  0  0  0  0
 16 26  1  0  0  0  0
M  END
> <PUBCHEM_COMPOUND_CID>
15504063

> <PUBCHEM_COMPOUND_CANONICALIZED>
1

> <PUBCHEM_CACTVS_COMPLEXITY>
273

> <PUBCHEM_CACTVS_HBOND_ACCEPTOR>
2

> <PUBCHEM_CACTVS_HBOND_DONOR>
1

> <PUBCHEM_CACTVS_ROTATABLE_BOND>
1

> <PUBCHEM_CACTVS_SUBSKEYS>
AAADccBzIAAAAAAAAAAAAAAAAAAAAWAAAAA8QAAAAAAAAFgBwAAAHgAQAAAADADBmgQ9sJLIEACoAjN3dACCgCkxACAJ2CEoRJiIIPLAnZGEIAholQLIyCcciMCOgAAAAAAAAAAAAAAAAAAAAAAAAAAAAA==

> <PUBCHEM_IUPAC_OPENEYE_NAME>
5-phenyl-1,3-dihydropyrrolo[2,3-b]pyridin-2-one

> <PUBCHEM_IUPAC_CAS_NAME>
5-phenyl-1,3-dihydropyrrolo[2,3-b]pyridin-2-one

> <PUBCHEM_IUPAC_NAME_MARKUP>
5-phenyl-1,3-dihydropyrrolo[2,3-b]pyridin-2-one

> <PUBCHEM_IUPAC_NAME>
5-phenyl-1,3-dihydropyrrolo[2,3-b]pyridin-2-one

> <PUBCHEM_IUPAC_SYSTEMATIC_NAME>
5-phenyl-1,3-dihydropyrrolo[2,3-b]pyridin-2-one

> <PUBCHEM_IUPAC_TRADITIONAL_NAME>
5-phenyl-1,3-dihydropyrrolo[2,3-b]pyridin-2-one

> <PUBCHEM_IUPAC_INCHI>
InChI=1S/C13H10N2O/c16-12-7-10-6-11(8-14-13(10)15-12)9-4-2-1-3-5-9/h1-6,8H,7H2,(H,14,15,16)

> <PUBCHEM_IUPAC_INCHIKEY>
QVGIGZLDWCWJDZ-UHFFFAOYSA-N

> <PUBCHEM_XLOGP3_AA>
1.7

> <PUBCHEM_EXACT_MASS>
210.079312947

> <PUBCHEM_MOLECULAR_FORMULA>
C13H10N2O

> <PUBCHEM_MOLECULAR_WEIGHT>
210.23

> <PUBCHEM_SMILES>
C1C2=C(NC1=O)N=CC(=C2)C3=CC=CC=C3

> <PUBCHEM_OPENEYE_CAN_SMILES>
C1C2=C(NC1=O)N=CC(=C2)C3=CC=CC=C3

> <PUBCHEM_OPENEYE_ISO_SMILES>
C1C2=C(NC1=O)N=CC(=C2)C3=CC=CC=C3

> <PUBCHEM_CACTVS_TPSA>
42

> <PUBCHEM_MONOISOTOPIC_WEIGHT>
210.079312947

> <PUBCHEM_TOTAL_CHARGE>
0

> <PUBCHEM_HEAVY_ATOM_COUNT>
16

> <PUBCHEM_ATOM_DEF_STEREO_COUNT>
0

> <PUBCHEM_ATOM_UDEF_STEREO_COUNT>
0

> <PUBCHEM_BOND_DEF_STEREO_COUNT>
0

> <PUBCHEM_BOND_UDEF_STEREO_COUNT>
0

> <PUBCHEM_ISOTOPIC_ATOM_COUNT>
0

> <PUBCHEM_COMPONENT_COUNT>
1

> <PUBCHEM_CACTVS_TAUTO_COUNT>
-1

> <PUBCHEM_COORDINATE_TYPE>
1
5
255

> <PUBCHEM_BONDANNOTATIONS>
10  12  8
10  13  8
12  14  8
13  15  8
14  16  8
15  16  8
3  11  8
3  6  8
4  6  8
4  7  8
7  8  8
8  11  8

$$$$
