49830726
  -OEChem-03202504002D

 39 41  0     0  0  0  0  0  0999 V2000
    5.6527   -0.5967    0.0000 S   0  0  0  0  0  0  0  0  0  0  0  0
   10.8964   -0.6900    0.0000 N   0  0  0  0  0  0  0  0  0  0  0  0
    7.4323   -0.6900    0.0000 N   0  0  0  0  0  0  0  0  0  0  0  0
    9.1643   -0.6900    0.0000 N   0  0  0  0  0  0  0  0  0  0  0  0
   10.0303    0.8100    0.0000 N   0  0  0  0  0  0  0  0  0  0  0  0
    6.4617    0.8045    0.0000 N   0  0  0  0  0  0  0  0  0  0  0  0
   11.7624   -0.1900    0.0000 C   0  0  0  0  0  0  0  0  0  0  0  0
   12.6284   -0.6900    0.0000 C   0  0  0  0  0  0  0  0  0  0  0  0
   11.7624    0.8100    0.0000 C   0  0  0  0  0  0  0  0  0  0  0  0
   10.0303   -0.1900    0.0000 C   0  0  0  0  0  0  0  0  0  0  0  0
    8.2983   -0.1900    0.0000 C   0  0  0  0  0  0  0  0  0  0  0  0
    4.9836    0.1464    0.0000 C   0  0  0  0  0  0  0  0  0  0  0  0
    3.9890    0.0419    0.0000 C   0  0  0  0  0  0  0  0  0  0  0  0
    6.5662   -0.1900    0.0000 C   0  0  0  0  0  0  0  0  0  0  0  0
    8.2983    0.8100    0.0000 C   0  0  0  0  0  0  0  0  0  0  0  0
    5.4836    1.0124    0.0000 C   0  0  0  0  0  0  0  0  0  0  0  0
    3.4013    0.8509    0.0000 C   0  0  0  0  0  0  0  0  0  0  0  0
    3.5823   -0.8717    0.0000 C   0  0  0  0  0  0  0  0  0  0  0  0
    9.1643    1.3100    0.0000 C   0  0  0  0  0  0  0  0  0  0  0  0
    2.4067    0.7464    0.0000 C   0  0  0  0  0  0  0  0  0  0  0  0
    2.5878   -0.9762    0.0000 C   0  0  0  0  0  0  0  0  0  0  0  0
    2.0000   -0.1672    0.0000 C   0  0  0  0  0  0  0  0  0  0  0  0
   11.2255    0.1200    0.0000 H   0  0  0  0  0  0  0  0  0  0  0  0
   10.8964   -1.3100    0.0000 H   0  0  0  0  0  0  0  0  0  0  0  0
   12.3184   -1.2269    0.0000 H   0  0  0  0  0  0  0  0  0  0  0  0
   13.1654   -1.0000    0.0000 H   0  0  0  0  0  0  0  0  0  0  0  0
   12.9384   -0.1531    0.0000 H   0  0  0  0  0  0  0  0  0  0  0  0
   12.3824    0.8100    0.0000 H   0  0  0  0  0  0  0  0  0  0  0  0
   11.7624    1.4300    0.0000 H   0  0  0  0  0  0  0  0  0  0  0  0
   11.1424    0.8100    0.0000 H   0  0  0  0  0  0  0  0  0  0  0  0
    7.4323   -1.3100    0.0000 H   0  0  0  0  0  0  0  0  0  0  0  0
    7.7614    1.1200    0.0000 H   0  0  0  0  0  0  0  0  0  0  0  0
    5.2314    1.5788    0.0000 H   0  0  0  0  0  0  0  0  0  0  0  0
    3.6534    1.4173    0.0000 H   0  0  0  0  0  0  0  0  0  0  0  0
    3.9467   -1.3733    0.0000 H   0  0  0  0  0  0  0  0  0  0  0  0
    9.1643    1.9300    0.0000 H   0  0  0  0  0  0  0  0  0  0  0  0
    2.0423    1.2480    0.0000 H   0  0  0  0  0  0  0  0  0  0  0  0
    2.3356   -1.5426    0.0000 H   0  0  0  0  0  0  0  0  0  0  0  0
    1.3834   -0.2320    0.0000 H   0  0  0  0  0  0  0  0  0  0  0  0
  1 12  1  0  0  0  0
  1 14  1  0  0  0  0
  2  7  1  0  0  0  0
  2 10  1  0  0  0  0
  2 24  1  0  0  0  0
  3 11  1  0  0  0  0
  3 14  1  0  0  0  0
  3 31  1  0  0  0  0
  4 10  1  0  0  0  0
  4 11  2  0  0  0  0
  5 10  2  0  0  0  0
  5 19  1  0  0  0  0
  6 14  2  0  0  0  0
  6 16  1  0  0  0  0
  7  8  1  0  0  0  0
  7  9  1  0  0  0  0
  7 23  1  0  0  0  0
  8 25  1  0  0  0  0
  8 26  1  0  0  0  0
  8 27  1  0  0  0  0
  9 28  1  0  0  0  0
  9 29  1  0  0  0  0
  9 30  1  0  0  0  0
 11 15  1  0  0  0  0
 12 13  1  0  0  0  0
 12 16  2  0  0  0  0
 13 17  2  0  0  0  0
 13 18  1  0  0  0  0
 15 19  2  0  0  0  0
 15 32  1  0  0  0  0
 16 33  1  0  0  0  0
 17 20  1  0  0  0  0
 17 34  1  0  0  0  0
 18 21  2  0  0  0  0
 18 35  1  0  0  0  0
 19 36  1  0  0  0  0
 20 22  2  0  0  0  0
 20 37  1  0  0  0  0
 21 22  1  0  0  0  0
 21 38  1  0  0  0  0
 22 39  1  0  0  0  0
M  END
> <PUBCHEM_COMPOUND_CID>
49830726

> <PUBCHEM_COMPOUND_CANONICALIZED>
1

> <PUBCHEM_CACTVS_COMPLEXITY>
334

> <PUBCHEM_CACTVS_HBOND_ACCEPTOR>
6

> <PUBCHEM_CACTVS_HBOND_DONOR>
2

> <PUBCHEM_CACTVS_ROTATABLE_BOND>
5

> <PUBCHEM_CACTVS_SUBSKEYS>
AAADceB7gABAAAAAAAAAAAAAAAAAAWAAAAA8QAAAAAAAAAAB8AAAHAQQAAAADCjBWgQ/sZbIEAikAjJnZACC8KlxCrlJ2Kw4ZJiIKKLg2VGEJAgokAJIyCcQgIAOAAAAAAAAAAAAAAAAAAAAAAAAAAAAAA==

> <PUBCHEM_IUPAC_OPENEYE_NAME>
N2-isopropyl-N4-(5-phenylthiazol-2-yl)pyrimidine-2,4-diamine

> <PUBCHEM_IUPAC_CAS_NAME>
N4-(5-phenyl-2-thiazolyl)-N2-propan-2-ylpyrimidine-2,4-diamine

> <PUBCHEM_IUPAC_NAME_MARKUP>
4-<I>N</I>-(5-phenyl-1,3-thiazol-2-yl)-2-<I>N</I>-propan-2-ylpyrimidine-2,4-diamine

> <PUBCHEM_IUPAC_NAME>
4-N-(5-phenyl-1,3-thiazol-2-yl)-2-N-propan-2-ylpyrimidine-2,4-diamine

> <PUBCHEM_IUPAC_SYSTEMATIC_NAME>
N4-(5-phenyl-1,3-thiazol-2-yl)-N2-propan-2-yl-pyrimidine-2,4-diamine

> <PUBCHEM_IUPAC_TRADITIONAL_NAME>
isopropyl-[4-[(5-phenylthiazol-2-yl)amino]pyrimidin-2-yl]amine

> <PUBCHEM_IUPAC_INCHI>
InChI=1S/C16H17N5S/c1-11(2)19-15-17-9-8-14(20-15)21-16-18-10-13(22-16)12-6-4-3-5-7-12/h3-11H,1-2H3,(H2,17,18,19,20,21)

> <PUBCHEM_IUPAC_INCHIKEY>
KVXUSGCDEMAYHI-UHFFFAOYSA-N

> <PUBCHEM_XLOGP3_AA>
4.2

> <PUBCHEM_EXACT_MASS>
311.12046674

> <PUBCHEM_MOLECULAR_FORMULA>
C16H17N5S

> <PUBCHEM_MOLECULAR_WEIGHT>
311.4

> <PUBCHEM_SMILES>
CC(C)NC1=NC=CC(=N1)NC2=NC=C(S2)C3=CC=CC=C3

> <PUBCHEM_OPENEYE_CAN_SMILES>
CC(C)NC1=NC=CC(=N1)NC2=NC=C(S2)C3=CC=CC=C3

> <PUBCHEM_OPENEYE_ISO_SMILES>
CC(C)NC1=NC=CC(=N1)NC2=NC=C(S2)C3=CC=CC=C3

> <PUBCHEM_CACTVS_TPSA>
91

> <PUBCHEM_MONOISOTOPIC_WEIGHT>
311.12046674

> <PUBCHEM_TOTAL_CHARGE>
0

> <PUBCHEM_HEAVY_ATOM_COUNT>
22

> <PUBCHEM_ATOM_DEF_STEREO_COUNT>
0

> <PUBCHEM_ATOM_UDEF_STEREO_COUNT>
0

> <PUBCHEM_BOND_DEF_STEREO_COUNT>
0

> <PUBCHEM_BOND_UDEF_STEREO_COUNT>
0

> <PUBCHEM_ISOTOPIC_ATOM_COUNT>
0

> <PUBCHEM_COMPONENT_COUNT>
1

> <PUBCHEM_CACTVS_TAUTO_COUNT>
-1

> <PUBCHEM_COORDINATE_TYPE>
1
5
255

> <PUBCHEM_BONDANNOTATIONS>
1  12  8
1  14  8
11  15  8
12  16  8
13  17  8
13  18  8
15  19  8
17  20  8
18  21  8
20  22  8
21  22  8
4  10  8
4  11  8
5  10  8
5  19  8
6  14  8
6  16  8

$$$$
