49830978
  -OEChem-03202502512D

 43 46  0     0  0  0  0  0  0999 V2000
    2.3660    1.4402    0.0000 F   0  0  0  0  0  0  0  0  0  0  0  0
    2.0000    0.0742    0.0000 F   0  0  0  0  0  0  0  0  0  0  0  0
    3.3660   -0.2918    0.0000 F   0  0  0  0  0  0  0  0  0  0  0  0
    3.7320    1.0742    0.0000 O   0  0  0  0  0  0  0  0  0  0  0  0
   10.8064    2.2305    0.0000 N   0  0  0  0  0  0  0  0  0  0  0  0
    9.8744   -2.2305    0.0000 N   0  0  0  0  0  0  0  0  0  0  0  0
   10.1851    0.3295    0.0000 C   0  0  0  0  0  0  0  0  0  0  0  0
    9.8744   -0.6210    0.0000 C   0  0  0  0  0  0  0  0  0  0  0  0
    9.5172    1.0738    0.0000 C   0  0  0  0  0  0  0  0  0  0  0  0
    8.9282   -0.9258    0.0000 C   0  0  0  0  0  0  0  0  0  0  0  0
    9.8279    2.0243    0.0000 C   0  0  0  0  0  0  0  0  0  0  0  0
    8.9282   -1.9258    0.0000 C   0  0  0  0  0  0  0  0  0  0  0  0
   11.1636    0.5357    0.0000 C   0  0  0  0  0  0  0  0  0  0  0  0
   11.4743    1.4862    0.0000 C   0  0  0  0  0  0  0  0  0  0  0  0
   10.4580   -1.4258    0.0000 C   0  0  0  0  0  0  0  0  0  0  0  0
    8.0622   -0.4258    0.0000 C   0  0  0  0  0  0  0  0  0  0  0  0
    7.1962   -0.9258    0.0000 C   0  0  0  0  0  0  0  0  0  0  0  0
    8.0622   -2.4258    0.0000 C   0  0  0  0  0  0  0  0  0  0  0  0
    7.1962   -1.9258    0.0000 C   0  0  0  0  0  0  0  0  0  0  0  0
    6.3301   -0.4258    0.0000 C   0  0  0  0  0  0  0  0  0  0  0  0
    5.4641   -0.9258    0.0000 C   0  0  0  0  0  0  0  0  0  0  0  0
    6.3301    0.5742    0.0000 C   0  0  0  0  0  0  0  0  0  0  0  0
    4.5981   -0.4258    0.0000 C   0  0  0  0  0  0  0  0  0  0  0  0
    5.4641    1.0742    0.0000 C   0  0  0  0  0  0  0  0  0  0  0  0
    4.5981    0.5742    0.0000 C   0  0  0  0  0  0  0  0  0  0  0  0
    2.8660    0.5742    0.0000 C   0  0  0  0  0  0  0  0  0  0  0  0
    8.9703    1.3658    0.0000 H   0  0  0  0  0  0  0  0  0  0  0  0
    9.1347    0.5859    0.0000 H   0  0  0  0  0  0  0  0  0  0  0  0
    9.8073    2.6439    0.0000 H   0  0  0  0  0  0  0  0  0  0  0  0
    9.2141    2.1116    0.0000 H   0  0  0  0  0  0  0  0  0  0  0  0
   11.5777    0.0742    0.0000 H   0  0  0  0  0  0  0  0  0  0  0  0
   12.0212    1.1942    0.0000 H   0  0  0  0  0  0  0  0  0  0  0  0
   11.8568    1.9741    0.0000 H   0  0  0  0  0  0  0  0  0  0  0  0
   11.0780   -1.4258    0.0000 H   0  0  0  0  0  0  0  0  0  0  0  0
   10.9990    2.8198    0.0000 H   0  0  0  0  0  0  0  0  0  0  0  0
    8.0622    0.1942    0.0000 H   0  0  0  0  0  0  0  0  0  0  0  0
   10.0670   -2.8198    0.0000 H   0  0  0  0  0  0  0  0  0  0  0  0
    8.0622   -3.0458    0.0000 H   0  0  0  0  0  0  0  0  0  0  0  0
    6.6592   -2.2358    0.0000 H   0  0  0  0  0  0  0  0  0  0  0  0
    5.4641   -1.5458    0.0000 H   0  0  0  0  0  0  0  0  0  0  0  0
    6.8671    0.8842    0.0000 H   0  0  0  0  0  0  0  0  0  0  0  0
    4.0611   -0.7358    0.0000 H   0  0  0  0  0  0  0  0  0  0  0  0
    5.4641    1.6942    0.0000 H   0  0  0  0  0  0  0  0  0  0  0  0
  1 26  1  0  0  0  0
  2 26  1  0  0  0  0
  3 26  1  0  0  0  0
  4 25  1  0  0  0  0
  4 26  1  0  0  0  0
  5 11  1  0  0  0  0
  5 14  1  0  0  0  0
  5 35  1  0  0  0  0
  6 12  1  0  0  0  0
  6 15  1  0  0  0  0
  6 37  1  0  0  0  0
  7  8  1  0  0  0  0
  7  9  1  0  0  0  0
  7 13  2  0  0  0  0
  8 10  1  0  0  0  0
  8 15  2  0  0  0  0
  9 11  1  0  0  0  0
  9 27  1  0  0  0  0
  9 28  1  0  0  0  0
 10 12  2  0  0  0  0
 10 16  1  0  0  0  0
 11 29  1  0  0  0  0
 11 30  1  0  0  0  0
 12 18  1  0  0  0  0
 13 14  1  0  0  0  0
 13 31  1  0  0  0  0
 14 32  1  0  0  0  0
 14 33  1  0  0  0  0
 15 34  1  0  0  0  0
 16 17  2  0  0  0  0
 16 36  1  0  0  0  0
 17 19  1  0  0  0  0
 17 20  1  0  0  0  0
 18 19  2  0  0  0  0
 18 38  1  0  0  0  0
 19 39  1  0  0  0  0
 20 21  2  0  0  0  0
 20 22  1  0  0  0  0
 21 23  1  0  0  0  0
 21 40  1  0  0  0  0
 22 24  2  0  0  0  0
 22 41  1  0  0  0  0
 23 25  2  0  0  0  0
 23 42  1  0  0  0  0
 24 25  1  0  0  0  0
 24 43  1  0  0  0  0
M  END
> <PUBCHEM_COMPOUND_CID>
49830978

> <PUBCHEM_COMPOUND_CANONICALIZED>
1

> <PUBCHEM_CACTVS_COMPLEXITY>
514

> <PUBCHEM_CACTVS_HBOND_ACCEPTOR>
5

> <PUBCHEM_CACTVS_HBOND_DONOR>
2

> <PUBCHEM_CACTVS_ROTATABLE_BOND>
3

> <PUBCHEM_CACTVS_SUBSKEYS>
AAADceB7IYAAAAAAAAAAAAAAAAAAAWAAAAAwYIAAAAAAAFgB9AAAHwAQAAAADAzBnhQ8xvLJlACgAzRnRACCiCAxIiAI2aA+bJgMJuLEsZuEMChk0BHI6AeQwPAOqAACAAACAABQAAQAAAQAAAAAAAAAAA==

> <PUBCHEM_IUPAC_OPENEYE_NAME>
3-(1,2,3,6-tetrahydropyridin-4-yl)-5-[4-(trifluoromethoxy)phenyl]-1H-indole

> <PUBCHEM_IUPAC_CAS_NAME>
3-(1,2,3,6-tetrahydropyridin-4-yl)-5-[4-(trifluoromethoxy)phenyl]-1H-indole

> <PUBCHEM_IUPAC_NAME_MARKUP>
3-(1,2,3,6-tetrahydropyridin-4-yl)-5-[4-(trifluoromethoxy)phenyl]-1<I>H</I>-indole

> <PUBCHEM_IUPAC_NAME>
3-(1,2,3,6-tetrahydropyridin-4-yl)-5-[4-(trifluoromethoxy)phenyl]-1H-indole

> <PUBCHEM_IUPAC_SYSTEMATIC_NAME>
3-(1,2,3,6-tetrahydropyridin-4-yl)-5-[4-(trifluoromethyloxy)phenyl]-1H-indole

> <PUBCHEM_IUPAC_TRADITIONAL_NAME>
3-(1,2,3,6-tetrahydropyridin-4-yl)-5-[4-(trifluoromethoxy)phenyl]-1H-indole

> <PUBCHEM_IUPAC_INCHI>
InChI=1S/C20H17F3N2O/c21-20(22,23)26-16-4-1-13(2-5-16)15-3-6-19-17(11-15)18(12-25-19)14-7-9-24-10-8-14/h1-7,11-12,24-25H,8-10H2

> <PUBCHEM_IUPAC_INCHIKEY>
GVPOWKVWVGYUKF-UHFFFAOYSA-N

> <PUBCHEM_XLOGP3_AA>
4.6

> <PUBCHEM_EXACT_MASS>
358.12929766

> <PUBCHEM_MOLECULAR_FORMULA>
C20H17F3N2O

> <PUBCHEM_MOLECULAR_WEIGHT>
358.4

> <PUBCHEM_SMILES>
C1CNCC=C1C2=CNC3=C2C=C(C=C3)C4=CC=C(C=C4)OC(F)(F)F

> <PUBCHEM_OPENEYE_CAN_SMILES>
C1CNCC=C1C2=CNC3=C2C=C(C=C3)C4=CC=C(C=C4)OC(F)(F)F

> <PUBCHEM_OPENEYE_ISO_SMILES>
C1CNCC=C1C2=CNC3=C2C=C(C=C3)C4=CC=C(C=C4)OC(F)(F)F

> <PUBCHEM_CACTVS_TPSA>
37.1

> <PUBCHEM_MONOISOTOPIC_WEIGHT>
358.12929766

> <PUBCHEM_TOTAL_CHARGE>
0

> <PUBCHEM_HEAVY_ATOM_COUNT>
26

> <PUBCHEM_ATOM_DEF_STEREO_COUNT>
0

> <PUBCHEM_ATOM_UDEF_STEREO_COUNT>
0

> <PUBCHEM_BOND_DEF_STEREO_COUNT>
0

> <PUBCHEM_BOND_UDEF_STEREO_COUNT>
0

> <PUBCHEM_ISOTOPIC_ATOM_COUNT>
0

> <PUBCHEM_COMPONENT_COUNT>
1

> <PUBCHEM_CACTVS_TAUTO_COUNT>
-1

> <PUBCHEM_COORDINATE_TYPE>
1
5
255

> <PUBCHEM_BONDANNOTATIONS>
10  12  8
10  16  8
12  18  8
16  17  8
17  19  8
18  19  8
20  21  8
20  22  8
21  23  8
22  24  8
23  25  8
24  25  8
6  12  8
6  15  8
8  10  8
8  15  8

$$$$
