44375773
  -OEChem-03202500222D

 39 41  0     0  0  0  0  0  0999 V2000
    7.2566   -2.5795    0.0000 S   0  0  0  0  0  0  0  0  0  0  0  0
    6.7485    2.0122    0.0000 O   0  0  0  0  0  0  0  0  0  0  0  0
    4.6844    4.8636    0.0000 O   0  0  0  0  0  0  0  0  0  0  0  0
    4.6783   -0.2660    0.0000 N   0  0  0  0  0  0  0  0  0  0  0  0
    5.9422    3.6014    0.0000 N   0  0  0  0  0  0  0  0  0  0  0  0
    8.5458   -3.7362    0.0000 N   0  0  0  0  0  0  0  0  0  0  0  0
    6.8994   -4.2743    0.0000 N   0  0  0  0  0  0  0  0  0  0  0  0
    3.7320    0.0387    0.0000 C   0  0  0  0  0  0  0  0  0  0  0  0
    4.9889   -1.2165    0.0000 C   0  0  0  0  0  0  0  0  0  0  0  0
    3.7320    1.0387    0.0000 C   0  0  0  0  0  0  0  0  0  0  0  0
    4.6783    1.3435    0.0000 C   0  0  0  0  0  0  0  0  0  0  0  0
    5.2619    0.5387    0.0000 C   0  0  0  0  0  0  0  0  0  0  0  0
    5.9674   -1.4227    0.0000 C   0  0  0  0  0  0  0  0  0  0  0  0
    4.9889    2.2940    0.0000 C   0  0  0  0  0  0  0  0  0  0  0  0
    2.8660   -0.4613    0.0000 C   0  0  0  0  0  0  0  0  0  0  0  0
    2.8660    1.5387    0.0000 C   0  0  0  0  0  0  0  0  0  0  0  0
    6.2781   -2.3732    0.0000 C   0  0  0  0  0  0  0  0  0  0  0  0
    2.0000    0.0387    0.0000 C   0  0  0  0  0  0  0  0  0  0  0  0
    2.0000    1.0387    0.0000 C   0  0  0  0  0  0  0  0  0  0  0  0
    5.9405    2.6014    0.0000 C   0  0  0  0  0  0  0  0  0  0  0  0
    4.4026    3.1040    0.0000 C   0  0  0  0  0  0  0  0  0  0  0  0
    4.9917    3.9120    0.0000 C   0  0  0  0  0  0  0  0  0  0  0  0
    7.5673   -3.5300    0.0000 C   0  0  0  0  0  0  0  0  0  0  0  0
    4.3751   -1.3039    0.0000 H   0  0  0  0  0  0  0  0  0  0  0  0
    4.9684   -1.8362    0.0000 H   0  0  0  0  0  0  0  0  0  0  0  0
    5.8819    0.5387    0.0000 H   0  0  0  0  0  0  0  0  0  0  0  0
    6.5812   -1.3354    0.0000 H   0  0  0  0  0  0  0  0  0  0  0  0
    5.9880   -0.8031    0.0000 H   0  0  0  0  0  0  0  0  0  0  0  0
    2.8660   -1.0813    0.0000 H   0  0  0  0  0  0  0  0  0  0  0  0
    2.8660    2.1587    0.0000 H   0  0  0  0  0  0  0  0  0  0  0  0
    5.6643   -2.4606    0.0000 H   0  0  0  0  0  0  0  0  0  0  0  0
    6.2575   -2.9929    0.0000 H   0  0  0  0  0  0  0  0  0  0  0  0
    1.4631   -0.2713    0.0000 H   0  0  0  0  0  0  0  0  0  0  0  0
    1.4631    1.3487    0.0000 H   0  0  0  0  0  0  0  0  0  0  0  0
    3.7826    3.1051    0.0000 H   0  0  0  0  0  0  0  0  0  0  0  0
    6.4445    3.9649    0.0000 H   0  0  0  0  0  0  0  0  0  0  0  0
    8.7384   -4.3255    0.0000 H   0  0  0  0  0  0  0  0  0  0  0  0
    8.9598   -3.2747    0.0000 H   0  0  0  0  0  0  0  0  0  0  0  0
    7.0920   -4.8636    0.0000 H   0  0  0  0  0  0  0  0  0  0  0  0
  1 17  1  0  0  0  0
  1 23  1  0  0  0  0
  2 20  2  0  0  0  0
  3 22  2  0  0  0  0
  4  8  1  0  0  0  0
  4  9  1  0  0  0  0
  4 12  1  0  0  0  0
  5 20  1  0  0  0  0
  5 22  1  0  0  0  0
  5 36  1  0  0  0  0
  6 23  1  0  0  0  0
  6 37  1  0  0  0  0
  6 38  1  0  0  0  0
  7 23  2  0  0  0  0
  7 39  1  0  0  0  0
  8 10  1  0  0  0  0
  8 15  2  0  0  0  0
  9 13  1  0  0  0  0
  9 24  1  0  0  0  0
  9 25  1  0  0  0  0
 10 11  1  0  0  0  0
 10 16  2  0  0  0  0
 11 12  2  0  0  0  0
 11 14  1  0  0  0  0
 12 26  1  0  0  0  0
 13 17  1  0  0  0  0
 13 27  1  0  0  0  0
 13 28  1  0  0  0  0
 14 20  1  0  0  0  0
 14 21  2  0  0  0  0
 15 18  1  0  0  0  0
 15 29  1  0  0  0  0
 16 19  1  0  0  0  0
 16 30  1  0  0  0  0
 17 31  1  0  0  0  0
 17 32  1  0  0  0  0
 18 19  2  0  0  0  0
 18 33  1  0  0  0  0
 19 34  1  0  0  0  0
 21 22  1  0  0  0  0
 21 35  1  0  0  0  0
M  END
> <PUBCHEM_COMPOUND_CID>
44375773

> <PUBCHEM_COMPOUND_CANONICALIZED>
1

> <PUBCHEM_CACTVS_COMPLEXITY>
548

> <PUBCHEM_CACTVS_HBOND_ACCEPTOR>
4

> <PUBCHEM_CACTVS_HBOND_DONOR>
3

> <PUBCHEM_CACTVS_ROTATABLE_BOND>
6

> <PUBCHEM_CACTVS_SUBSKEYS>
AAADceB7sABAAAAAAAAAAAAAAAAAAWIAAAAwAAAAAAAAAFgB8AAAHgQQAAAADAjF3gS9wPPMEAioAzV3dACCgiDxAjAI2CE4ZNgIIPLglZGEIAhglCDIyYccicCegAAAAAACAAAAAAAAAAQAAAAAAAAAAA==

> <PUBCHEM_IUPAC_OPENEYE_NAME>
2-[3-[3-(2,5-dioxopyrrol-3-yl)indol-1-yl]propyl]isothiourea

> <PUBCHEM_IUPAC_CAS_NAME>
carbamimidothioic acid 3-[3-(2,5-dioxo-3-pyrrolyl)-1-indolyl]propyl ester

> <PUBCHEM_IUPAC_NAME_MARKUP>
3-[3-(2,5-dioxopyrrol-3-yl)indol-1-yl]propyl carbamimidothioate

> <PUBCHEM_IUPAC_NAME>
3-[3-(2,5-dioxopyrrol-3-yl)indol-1-yl]propyl carbamimidothioate

> <PUBCHEM_IUPAC_SYSTEMATIC_NAME>
3-[3-[2,5-bis(oxidanylidene)pyrrol-3-yl]indol-1-yl]propyl carbamimidothioate

> <PUBCHEM_IUPAC_TRADITIONAL_NAME>
2-[3-[3-(2,5-diketo-3-pyrrolin-3-yl)indol-1-yl]propyl]isothiourea

> <PUBCHEM_IUPAC_INCHI>
InChI=1S/C16H16N4O2S/c17-16(18)23-7-3-6-20-9-12(10-4-1-2-5-13(10)20)11-8-14(21)19-15(11)22/h1-2,4-5,8-9H,3,6-7H2,(H3,17,18)(H,19,21,22)

> <PUBCHEM_IUPAC_INCHIKEY>
FDZAERNWUZKQMO-UHFFFAOYSA-N

> <PUBCHEM_XLOGP3_AA>
1.3

> <PUBCHEM_EXACT_MASS>
328.09939694

> <PUBCHEM_MOLECULAR_FORMULA>
C16H16N4O2S

> <PUBCHEM_MOLECULAR_WEIGHT>
328.4

> <PUBCHEM_SMILES>
C1=CC=C2C(=C1)C(=CN2CCCSC(=N)N)C3=CC(=O)NC3=O

> <PUBCHEM_OPENEYE_CAN_SMILES>
C1=CC=C2C(=C1)C(=CN2CCCSC(=N)N)C3=CC(=O)NC3=O

> <PUBCHEM_OPENEYE_ISO_SMILES>
C1=CC=C2C(=C1)C(=CN2CCCSC(=N)N)C3=CC(=O)NC3=O

> <PUBCHEM_CACTVS_TPSA>
126

> <PUBCHEM_MONOISOTOPIC_WEIGHT>
328.09939694

> <PUBCHEM_TOTAL_CHARGE>
0

> <PUBCHEM_HEAVY_ATOM_COUNT>
23

> <PUBCHEM_ATOM_DEF_STEREO_COUNT>
0

> <PUBCHEM_ATOM_UDEF_STEREO_COUNT>
0

> <PUBCHEM_BOND_DEF_STEREO_COUNT>
0

> <PUBCHEM_BOND_UDEF_STEREO_COUNT>
0

> <PUBCHEM_ISOTOPIC_ATOM_COUNT>
0

> <PUBCHEM_COMPONENT_COUNT>
1

> <PUBCHEM_CACTVS_TAUTO_COUNT>
-1

> <PUBCHEM_COORDINATE_TYPE>
1
5
255

> <PUBCHEM_BONDANNOTATIONS>
10  11  8
10  16  8
11  12  8
15  18  8
16  19  8
18  19  8
4  12  8
4  8  8
8  10  8
8  15  8

$$$$
