24905327
  -OEChem-03202500022D

 45 48  0     0  0  0  0  0  0999 V2000
    5.9209    4.2998    0.0000 F   0  0  0  0  0  0  0  0  0  0  0  0
    7.2566    2.8112    0.0000 O   0  0  0  0  0  0  0  0  0  0  0  0
    4.6783   -1.1117    0.0000 N   0  0  0  0  0  0  0  0  0  0  0  0
    5.2619   -0.3070    0.0000 N   0  0  0  0  0  0  0  0  0  0  0  0
    2.8660   -1.3070    0.0000 N   0  0  0  0  0  0  0  0  0  0  0  0
    2.0000    0.1930    0.0000 N   0  0  0  0  0  0  0  0  0  0  0  0
    2.8660    1.6930    0.0000 N   0  0  0  0  0  0  0  0  0  0  0  0
    4.9889   -2.0622    0.0000 C   0  0  0  0  0  0  0  0  0  0  0  0
    4.2673   -2.7546    0.0000 C   0  0  0  0  0  0  0  0  0  0  0  0
    5.9801   -2.1948    0.0000 C   0  0  0  0  0  0  0  0  0  0  0  0
    4.3587   -3.7504    0.0000 C   0  0  0  0  0  0  0  0  0  0  0  0
    6.4945   -3.0523    0.0000 C   0  0  0  0  0  0  0  0  0  0  0  0
    5.1942   -4.2998    0.0000 C   0  0  0  0  0  0  0  0  0  0  0  0
    6.1447   -3.9892    0.0000 C   0  0  0  0  0  0  0  0  0  0  0  0
    3.7320   -0.8070    0.0000 C   0  0  0  0  0  0  0  0  0  0  0  0
    3.7320    0.1930    0.0000 C   0  0  0  0  0  0  0  0  0  0  0  0
    4.6783    0.4977    0.0000 C   0  0  0  0  0  0  0  0  0  0  0  0
    2.8660    0.6930    0.0000 C   0  0  0  0  0  0  0  0  0  0  0  0
    4.9889    1.4483    0.0000 C   0  0  0  0  0  0  0  0  0  0  0  0
    2.0000   -0.8070    0.0000 C   0  0  0  0  0  0  0  0  0  0  0  0
    5.9674    1.6545    0.0000 C   0  0  0  0  0  0  0  0  0  0  0  0
    4.3211    2.1926    0.0000 C   0  0  0  0  0  0  0  0  0  0  0  0
    6.2781    2.6050    0.0000 C   0  0  0  0  0  0  0  0  0  0  0  0
    4.6318    3.1431    0.0000 C   0  0  0  0  0  0  0  0  0  0  0  0
    5.6103    3.3493    0.0000 C   0  0  0  0  0  0  0  0  0  0  0  0
    4.3875   -1.9118    0.0000 H   0  0  0  0  0  0  0  0  0  0  0  0
    3.9484   -2.2229    0.0000 H   0  0  0  0  0  0  0  0  0  0  0  0
    3.6780   -2.9472    0.0000 H   0  0  0  0  0  0  0  0  0  0  0  0
    6.5694   -2.0022    0.0000 H   0  0  0  0  0  0  0  0  0  0  0  0
    5.9235   -1.5774    0.0000 H   0  0  0  0  0  0  0  0  0  0  0  0
    3.7442   -3.6682    0.0000 H   0  0  0  0  0  0  0  0  0  0  0  0
    4.1418   -4.3312    0.0000 H   0  0  0  0  0  0  0  0  0  0  0  0
    7.0125   -3.3930    0.0000 H   0  0  0  0  0  0  0  0  0  0  0  0
    6.9419   -2.6231    0.0000 H   0  0  0  0  0  0  0  0  0  0  0  0
    4.7468   -4.7291    0.0000 H   0  0  0  0  0  0  0  0  0  0  0  0
    5.5131   -4.8315    0.0000 H   0  0  0  0  0  0  0  0  0  0  0  0
    6.2014   -4.6066    0.0000 H   0  0  0  0  0  0  0  0  0  0  0  0
    6.7593   -4.0713    0.0000 H   0  0  0  0  0  0  0  0  0  0  0  0
    1.4631   -1.1170    0.0000 H   0  0  0  0  0  0  0  0  0  0  0  0
    6.3815    1.1930    0.0000 H   0  0  0  0  0  0  0  0  0  0  0  0
    3.7144    2.0647    0.0000 H   0  0  0  0  0  0  0  0  0  0  0  0
    2.3291    2.0030    0.0000 H   0  0  0  0  0  0  0  0  0  0  0  0
    3.4030    2.0030    0.0000 H   0  0  0  0  0  0  0  0  0  0  0  0
    4.2177    3.6046    0.0000 H   0  0  0  0  0  0  0  0  0  0  0  0
    7.6707    2.3497    0.0000 H   0  0  0  0  0  0  0  0  0  0  0  0
  1 25  1  0  0  0  0
  2 23  1  0  0  0  0
  2 45  1  0  0  0  0
  3  4  1  0  0  0  0
  3  8  1  0  0  0  0
  3 15  1  0  0  0  0
  4 17  2  0  0  0  0
  5 15  2  0  0  0  0
  5 20  1  0  0  0  0
  6 18  1  0  0  0  0
  6 20  2  0  0  0  0
  7 18  1  0  0  0  0
  7 42  1  0  0  0  0
  7 43  1  0  0  0  0
  8  9  1  0  0  0  0
  8 10  1  0  0  0  0
  8 26  1  0  0  0  0
  9 11  1  0  0  0  0
  9 27  1  0  0  0  0
  9 28  1  0  0  0  0
 10 12  1  0  0  0  0
 10 29  1  0  0  0  0
 10 30  1  0  0  0  0
 11 13  1  0  0  0  0
 11 31  1  0  0  0  0
 11 32  1  0  0  0  0
 12 14  1  0  0  0  0
 12 33  1  0  0  0  0
 12 34  1  0  0  0  0
 13 14  1  0  0  0  0
 13 35  1  0  0  0  0
 13 36  1  0  0  0  0
 14 37  1  0  0  0  0
 14 38  1  0  0  0  0
 15 16  1  0  0  0  0
 16 17  1  0  0  0  0
 16 18  2  0  0  0  0
 17 19  1  0  0  0  0
 19 21  2  0  0  0  0
 19 22  1  0  0  0  0
 20 39  1  0  0  0  0
 21 23  1  0  0  0  0
 21 40  1  0  0  0  0
 22 24  2  0  0  0  0
 22 41  1  0  0  0  0
 23 25  2  0  0  0  0
 24 25  1  0  0  0  0
 24 44  1  0  0  0  0
M  END
> <PUBCHEM_COMPOUND_CID>
24905327

> <PUBCHEM_COMPOUND_CANONICALIZED>
1

> <PUBCHEM_CACTVS_COMPLEXITY>
447

> <PUBCHEM_CACTVS_HBOND_ACCEPTOR>
6

> <PUBCHEM_CACTVS_HBOND_DONOR>
2

> <PUBCHEM_CACTVS_ROTATABLE_BOND>
2

> <PUBCHEM_CACTVS_SUBSKEYS>
AAADceB7oQAAAAAAAAAAAAAAAAAAAWAAAAA8QAAABgAAAFgB/AAAHwAYCAAADCzBnww1tt5IEgCiAyZjZACShCsxoKAd2CAuTJiILqLC2dOE9AhsyBPI2CewwPAOAAABAAAAAAAAAAIAAAAAAAAAAAAAAA==

> <PUBCHEM_IUPAC_OPENEYE_NAME>
5-(4-amino-1-cycloheptyl-pyrazolo[3,4-d]pyrimidin-3-yl)-2-fluoro-phenol

> <PUBCHEM_IUPAC_CAS_NAME>
5-(4-amino-1-cycloheptyl-3-pyrazolo[3,4-d]pyrimidinyl)-2-fluorophenol

> <PUBCHEM_IUPAC_NAME_MARKUP>
5-(4-amino-1-cycloheptylpyrazolo[3,4-d]pyrimidin-3-yl)-2-fluorophenol

> <PUBCHEM_IUPAC_NAME>
5-(4-amino-1-cycloheptylpyrazolo[3,4-d]pyrimidin-3-yl)-2-fluorophenol

> <PUBCHEM_IUPAC_SYSTEMATIC_NAME>
5-(4-azanyl-1-cycloheptyl-pyrazolo[3,4-d]pyrimidin-3-yl)-2-fluoranyl-phenol

> <PUBCHEM_IUPAC_TRADITIONAL_NAME>
5-(4-amino-1-cycloheptyl-pyrazolo[3,4-d]pyrimidin-3-yl)-2-fluoro-phenol

> <PUBCHEM_IUPAC_INCHI>
InChI=1S/C18H20FN5O/c19-13-8-7-11(9-14(13)25)16-15-17(20)21-10-22-18(15)24(23-16)12-5-3-1-2-4-6-12/h7-10,12,25H,1-6H2,(H2,20,21,22)

> <PUBCHEM_IUPAC_INCHIKEY>
XNODQMMIMXSTMX-UHFFFAOYSA-N

> <PUBCHEM_XLOGP3_AA>
3.5

> <PUBCHEM_EXACT_MASS>
341.16518844

> <PUBCHEM_MOLECULAR_FORMULA>
C18H20FN5O

> <PUBCHEM_MOLECULAR_WEIGHT>
341.4

> <PUBCHEM_SMILES>
C1CCCC(CC1)N2C3=NC=NC(=C3C(=N2)C4=CC(=C(C=C4)F)O)N

> <PUBCHEM_OPENEYE_CAN_SMILES>
C1CCCC(CC1)N2C3=NC=NC(=C3C(=N2)C4=CC(=C(C=C4)F)O)N

> <PUBCHEM_OPENEYE_ISO_SMILES>
C1CCCC(CC1)N2C3=NC=NC(=C3C(=N2)C4=CC(=C(C=C4)F)O)N

> <PUBCHEM_CACTVS_TPSA>
89.9

> <PUBCHEM_MONOISOTOPIC_WEIGHT>
341.16518844

> <PUBCHEM_TOTAL_CHARGE>
0

> <PUBCHEM_HEAVY_ATOM_COUNT>
25

> <PUBCHEM_ATOM_DEF_STEREO_COUNT>
0

> <PUBCHEM_ATOM_UDEF_STEREO_COUNT>
0

> <PUBCHEM_BOND_DEF_STEREO_COUNT>
0

> <PUBCHEM_BOND_UDEF_STEREO_COUNT>
0

> <PUBCHEM_ISOTOPIC_ATOM_COUNT>
0

> <PUBCHEM_COMPONENT_COUNT>
1

> <PUBCHEM_CACTVS_TAUTO_COUNT>
-1

> <PUBCHEM_COORDINATE_TYPE>
1
5
255

> <PUBCHEM_BONDANNOTATIONS>
15  16  8
16  17  8
16  18  8
19  21  8
19  22  8
21  23  8
22  24  8
23  25  8
24  25  8
3  15  8
3  4  8
4  17  8
5  15  8
5  20  8
6  18  8
6  20  8

$$$$
