43237179
  -OEChem-03202502442D

 22 23  0     0  0  0  0  0  0999 V2000
    4.7078   -0.8090    0.0000 S   0  0  0  0  0  0  0  0  0  0  0  0
    2.6200   -0.8660    0.0000 O   0  0  0  0  0  0  0  0  0  0  0  0
    6.6051   -0.8047    0.0000 N   0  0  0  0  0  0  0  0  0  0  0  0
    7.1887   -0.0000    0.0000 N   0  0  0  0  0  0  0  0  0  0  0  0
    2.6200    0.8660    0.0000 N   0  0  0  0  0  0  0  0  0  0  0  0
    5.6588    0.5000    0.0000 C   0  0  0  0  0  0  0  0  0  0  0  0
    5.6588   -0.5000    0.0000 C   0  0  0  0  0  0  0  0  0  0  0  0
    6.6051    0.8047    0.0000 C   0  0  0  0  0  0  0  0  0  0  0  0
    4.7078    0.8090    0.0000 C   0  0  0  0  0  0  0  0  0  0  0  0
    4.1200   -0.0000    0.0000 C   0  0  0  0  0  0  0  0  0  0  0  0
    6.9157    1.7552    0.0000 C   0  0  0  0  0  0  0  0  0  0  0  0
    6.9157   -1.7552    0.0000 C   0  0  0  0  0  0  0  0  0  0  0  0
    3.1200   -0.0000    0.0000 C   0  0  0  0  0  0  0  0  0  0  0  0
    4.5162    1.3987    0.0000 H   0  0  0  0  0  0  0  0  0  0  0  0
    7.5050    1.5626    0.0000 H   0  0  0  0  0  0  0  0  0  0  0  0
    7.1083    2.3446    0.0000 H   0  0  0  0  0  0  0  0  0  0  0  0
    6.3264    1.9479    0.0000 H   0  0  0  0  0  0  0  0  0  0  0  0
    6.3264   -1.9479    0.0000 H   0  0  0  0  0  0  0  0  0  0  0  0
    7.1083   -2.3446    0.0000 H   0  0  0  0  0  0  0  0  0  0  0  0
    7.5050   -1.5626    0.0000 H   0  0  0  0  0  0  0  0  0  0  0  0
    2.0000    0.8660    0.0000 H   0  0  0  0  0  0  0  0  0  0  0  0
    2.9300    1.4030    0.0000 H   0  0  0  0  0  0  0  0  0  0  0  0
  1  7  1  0  0  0  0
  1 10  1  0  0  0  0
  2 13  2  0  0  0  0
  3  4  1  0  0  0  0
  3  7  1  0  0  0  0
  3 12  1  0  0  0  0
  4  8  2  0  0  0  0
  5 13  1  0  0  0  0
  5 21  1  0  0  0  0
  5 22  1  0  0  0  0
  6  7  2  0  0  0  0
  6  8  1  0  0  0  0
  6  9  1  0  0  0  0
  8 11  1  0  0  0  0
  9 10  2  0  0  0  0
  9 14  1  0  0  0  0
 10 13  1  0  0  0  0
 11 15  1  0  0  0  0
 11 16  1  0  0  0  0
 11 17  1  0  0  0  0
 12 18  1  0  0  0  0
 12 19  1  0  0  0  0
 12 20  1  0  0  0  0
M  END
> <PUBCHEM_COMPOUND_CID>
43237179

> <PUBCHEM_COMPOUND_CANONICALIZED>
1

> <PUBCHEM_CACTVS_COMPLEXITY>
235

> <PUBCHEM_CACTVS_HBOND_ACCEPTOR>
3

> <PUBCHEM_CACTVS_HBOND_DONOR>
1

> <PUBCHEM_CACTVS_ROTATABLE_BOND>
1

> <PUBCHEM_CACTVS_SUBSKEYS>
AAADccBzIABAAAAAAAAAAAAAAAAAAWJAAAAAAAAAAAAWAAAB+AAAHgQYAAAADAiB3gQygdJIAAiuAyVyVACTFIBliBhQ2Dk4RNgIILLg1NGEhQxgiABoyYcYCQAeAAAAAAAAAAAAAAAAAAAAAAAAAAAAAA==

> <PUBCHEM_IUPAC_OPENEYE_NAME>
1,3-dimethylthieno[2,3-c]pyrazole-5-carboxamide

> <PUBCHEM_IUPAC_CAS_NAME>
1,3-dimethyl-5-thieno[2,3-c]pyrazolecarboxamide

> <PUBCHEM_IUPAC_NAME_MARKUP>
1,3-dimethylthieno[2,3-c]pyrazole-5-carboxamide

> <PUBCHEM_IUPAC_NAME>
1,3-dimethylthieno[2,3-c]pyrazole-5-carboxamide

> <PUBCHEM_IUPAC_SYSTEMATIC_NAME>
1,3-dimethylthieno[2,3-c]pyrazole-5-carboxamide

> <PUBCHEM_IUPAC_TRADITIONAL_NAME>
1,3-dimethylthieno[2,3-c]pyrazole-5-carboxamide

> <PUBCHEM_IUPAC_INCHI>
InChI=1S/C8H9N3OS/c1-4-5-3-6(7(9)12)13-8(5)11(2)10-4/h3H,1-2H3,(H2,9,12)

> <PUBCHEM_IUPAC_INCHIKEY>
GGDSNCJKPWDFQP-UHFFFAOYSA-N

> <PUBCHEM_XLOGP3_AA>
1.2

> <PUBCHEM_EXACT_MASS>
195.04663309

> <PUBCHEM_MOLECULAR_FORMULA>
C8H9N3OS

> <PUBCHEM_MOLECULAR_WEIGHT>
195.24

> <PUBCHEM_SMILES>
CC1=NN(C2=C1C=C(S2)C(=O)N)C

> <PUBCHEM_OPENEYE_CAN_SMILES>
CC1=NN(C2=C1C=C(S2)C(=O)N)C

> <PUBCHEM_OPENEYE_ISO_SMILES>
CC1=NN(C2=C1C=C(S2)C(=O)N)C

> <PUBCHEM_CACTVS_TPSA>
89.2

> <PUBCHEM_MONOISOTOPIC_WEIGHT>
195.04663309

> <PUBCHEM_TOTAL_CHARGE>
0

> <PUBCHEM_HEAVY_ATOM_COUNT>
13

> <PUBCHEM_ATOM_DEF_STEREO_COUNT>
0

> <PUBCHEM_ATOM_UDEF_STEREO_COUNT>
0

> <PUBCHEM_BOND_DEF_STEREO_COUNT>
0

> <PUBCHEM_BOND_UDEF_STEREO_COUNT>
0

> <PUBCHEM_ISOTOPIC_ATOM_COUNT>
0

> <PUBCHEM_COMPONENT_COUNT>
1

> <PUBCHEM_CACTVS_TAUTO_COUNT>
-1

> <PUBCHEM_COORDINATE_TYPE>
1
5
255

> <PUBCHEM_BONDANNOTATIONS>
1  10  8
1  7  8
3  4  8
3  7  8
4  8  8
6  7  8
6  8  8
6  9  8
9  10  8

$$$$
