49830817
  -OEChem-03202503152D

 40 43  0     0  0  0  0  0  0999 V2000
    6.0812   -0.5622    0.0000 S   0  0  0  0  0  0  0  0  0  0  0  0
    8.5889    3.5596    0.0000 O   0  0  0  0  0  0  0  0  0  0  0  0
    7.5140    4.7575    0.0000 O   0  0  0  0  0  0  0  0  0  0  0  0
    4.2690   -3.7575    0.0000 O   0  0  0  0  0  0  0  0  0  0  0  0
    3.4030    0.7425    0.0000 N   0  0  0  0  0  0  0  0  0  0  0  0
    4.2690    2.2425    0.0000 N   0  0  0  0  0  0  0  0  0  0  0  0
    2.5369   -3.7575    0.0000 N   0  0  0  0  0  0  0  0  0  0  0  0
    6.0812    1.0472    0.0000 C   0  0  0  0  0  0  0  0  0  0  0  0
    5.1350    0.7425    0.0000 C   0  0  0  0  0  0  0  0  0  0  0  0
    6.3919    1.9977    0.0000 C   0  0  0  0  0  0  0  0  0  0  0  0
    5.1350   -0.2575    0.0000 C   0  0  0  0  0  0  0  0  0  0  0  0
    7.3704    2.2040    0.0000 C   0  0  0  0  0  0  0  0  0  0  0  0
    6.6648    0.2425    0.0000 C   0  0  0  0  0  0  0  0  0  0  0  0
    4.2690   -0.7575    0.0000 C   0  0  0  0  0  0  0  0  0  0  0  0
    7.6811    3.1545    0.0000 C   0  0  0  0  0  0  0  0  0  0  0  0
    4.2690    1.2425    0.0000 C   0  0  0  0  0  0  0  0  0  0  0  0
    5.7240    2.7420    0.0000 C   0  0  0  0  0  0  0  0  0  0  0  0
    7.0132    3.8988    0.0000 C   0  0  0  0  0  0  0  0  0  0  0  0
    6.0347    3.6926    0.0000 C   0  0  0  0  0  0  0  0  0  0  0  0
    3.4030   -0.2575    0.0000 C   0  0  0  0  0  0  0  0  0  0  0  0
    8.4858    4.5483    0.0000 C   0  0  0  0  0  0  0  0  0  0  0  0
    4.2690   -1.7575    0.0000 C   0  0  0  0  0  0  0  0  0  0  0  0
    3.4030   -2.2575    0.0000 C   0  0  0  0  0  0  0  0  0  0  0  0
    3.4030   -3.2575    0.0000 C   0  0  0  0  0  0  0  0  0  0  0  0
    2.5369   -4.7575    0.0000 C   0  0  0  0  0  0  0  0  0  0  0  0
    7.7845    1.7425    0.0000 H   0  0  0  0  0  0  0  0  0  0  0  0
    7.2848    0.2425    0.0000 H   0  0  0  0  0  0  0  0  0  0  0  0
    5.1174    2.6142    0.0000 H   0  0  0  0  0  0  0  0  0  0  0  0
    5.6207    4.1540    0.0000 H   0  0  0  0  0  0  0  0  0  0  0  0
    2.8660   -0.5675    0.0000 H   0  0  0  0  0  0  0  0  0  0  0  0
    9.1058    4.5474    0.0000 H   0  0  0  0  0  0  0  0  0  0  0  0
    8.5518    5.1648    0.0000 H   0  0  0  0  0  0  0  0  0  0  0  0
    4.8059   -2.0675    0.0000 H   0  0  0  0  0  0  0  0  0  0  0  0
    3.7320    2.5525    0.0000 H   0  0  0  0  0  0  0  0  0  0  0  0
    4.8059    2.5525    0.0000 H   0  0  0  0  0  0  0  0  0  0  0  0
    2.8660   -1.9475    0.0000 H   0  0  0  0  0  0  0  0  0  0  0  0
    2.0000   -3.4475    0.0000 H   0  0  0  0  0  0  0  0  0  0  0  0
    1.9169   -4.7575    0.0000 H   0  0  0  0  0  0  0  0  0  0  0  0
    2.5369   -5.3775    0.0000 H   0  0  0  0  0  0  0  0  0  0  0  0
    3.1569   -4.7575    0.0000 H   0  0  0  0  0  0  0  0  0  0  0  0
  1 11  1  0  0  0  0
  1 13  1  0  0  0  0
  2 15  1  0  0  0  0
  2 21  1  0  0  0  0
  3 18  1  0  0  0  0
  3 21  1  0  0  0  0
  4 24  2  0  0  0  0
  5 16  2  0  0  0  0
  5 20  1  0  0  0  0
  6 16  1  0  0  0  0
  6 34  1  0  0  0  0
  6 35  1  0  0  0  0
  7 24  1  0  0  0  0
  7 25  1  0  0  0  0
  7 37  1  0  0  0  0
  8  9  1  0  0  0  0
  8 10  1  0  0  0  0
  8 13  2  0  0  0  0
  9 11  2  0  0  0  0
  9 16  1  0  0  0  0
 10 12  2  0  0  0  0
 10 17  1  0  0  0  0
 11 14  1  0  0  0  0
 12 15  1  0  0  0  0
 12 26  1  0  0  0  0
 13 27  1  0  0  0  0
 14 20  2  0  0  0  0
 14 22  1  0  0  0  0
 15 18  2  0  0  0  0
 17 19  2  0  0  0  0
 17 28  1  0  0  0  0
 18 19  1  0  0  0  0
 19 29  1  0  0  0  0
 20 30  1  0  0  0  0
 21 31  1  0  0  0  0
 21 32  1  0  0  0  0
 22 23  2  3  0  0  0
 22 33  1  0  0  0  0
 23 24  1  0  0  0  0
 23 36  1  0  0  0  0
 25 38  1  0  0  0  0
 25 39  1  0  0  0  0
 25 40  1  0  0  0  0
M  END
> <PUBCHEM_COMPOUND_CID>
49830817

> <PUBCHEM_COMPOUND_CANONICALIZED>
1

> <PUBCHEM_CACTVS_COMPLEXITY>
532

> <PUBCHEM_CACTVS_HBOND_ACCEPTOR>
6

> <PUBCHEM_CACTVS_HBOND_DONOR>
2

> <PUBCHEM_CACTVS_ROTATABLE_BOND>
3

> <PUBCHEM_CACTVS_SUBSKEYS>
AAADccB7MABAAAAAAAAAAAAAAAAAASJAAAA8QAAAAAAAAFgB/AAAHgQQAAAADATF2ge/v9LIFAisAjN3dACDiKkxKDAI2LAuzNidJmLksZukMC5k0hPu6aeQwPAOoAABAAAAQABAAAIAAACAAAAAAAAAAA==

> <PUBCHEM_IUPAC_OPENEYE_NAME>
3-[4-amino-3-(1,3-benzodioxol-5-yl)thieno[3,2-c]pyridin-7-yl]-N-methyl-prop-2-enamide

> <PUBCHEM_IUPAC_CAS_NAME>
3-[4-amino-3-(1,3-benzodioxol-5-yl)-7-thieno[3,2-c]pyridinyl]-N-methyl-2-propenamide

> <PUBCHEM_IUPAC_NAME_MARKUP>
3-[4-amino-3-(1,3-benzodioxol-5-yl)thieno[3,2-c]pyridin-7-yl]-<I>N</I>-methylprop-2-enamide

> <PUBCHEM_IUPAC_NAME>
3-[4-amino-3-(1,3-benzodioxol-5-yl)thieno[3,2-c]pyridin-7-yl]-N-methylprop-2-enamide

> <PUBCHEM_IUPAC_SYSTEMATIC_NAME>
3-[4-azanyl-3-(1,3-benzodioxol-5-yl)thieno[3,2-c]pyridin-7-yl]-N-methyl-prop-2-enamide

> <PUBCHEM_IUPAC_TRADITIONAL_NAME>
3-[4-amino-3-(1,3-benzodioxol-5-yl)thieno[3,2-c]pyridin-7-yl]-N-methyl-acrylamide

> <PUBCHEM_IUPAC_INCHI>
InChI=1S/C18H15N3O3S/c1-20-15(22)5-3-11-7-21-18(19)16-12(8-25-17(11)16)10-2-4-13-14(6-10)24-9-23-13/h2-8H,9H2,1H3,(H2,19,21)(H,20,22)

> <PUBCHEM_IUPAC_INCHIKEY>
JSDGKSMNPHJDFK-UHFFFAOYSA-N

> <PUBCHEM_XLOGP3_AA>
2.7

> <PUBCHEM_EXACT_MASS>
353.08341252

> <PUBCHEM_MOLECULAR_FORMULA>
C18H15N3O3S

> <PUBCHEM_MOLECULAR_WEIGHT>
353.4

> <PUBCHEM_SMILES>
CNC(=O)C=CC1=CN=C(C2=C1SC=C2C3=CC4=C(C=C3)OCO4)N

> <PUBCHEM_OPENEYE_CAN_SMILES>
CNC(=O)C=CC1=CN=C(C2=C1SC=C2C3=CC4=C(C=C3)OCO4)N

> <PUBCHEM_OPENEYE_ISO_SMILES>
CNC(=O)C=CC1=CN=C(C2=C1SC=C2C3=CC4=C(C=C3)OCO4)N

> <PUBCHEM_CACTVS_TPSA>
115

> <PUBCHEM_MONOISOTOPIC_WEIGHT>
353.08341252

> <PUBCHEM_TOTAL_CHARGE>
0

> <PUBCHEM_HEAVY_ATOM_COUNT>
25

> <PUBCHEM_ATOM_DEF_STEREO_COUNT>
0

> <PUBCHEM_ATOM_UDEF_STEREO_COUNT>
0

> <PUBCHEM_BOND_DEF_STEREO_COUNT>
0

> <PUBCHEM_BOND_UDEF_STEREO_COUNT>
1

> <PUBCHEM_ISOTOPIC_ATOM_COUNT>
0

> <PUBCHEM_COMPONENT_COUNT>
1

> <PUBCHEM_CACTVS_TAUTO_COUNT>
-1

> <PUBCHEM_COORDINATE_TYPE>
1
5
255

> <PUBCHEM_BONDANNOTATIONS>
1  11  8
1  13  8
10  12  8
10  17  8
11  14  8
12  15  8
14  20  8
15  18  8
17  19  8
18  19  8
22  23  1
5  16  8
5  20  8
8  13  8
8  9  8
9  11  8
9  16  8

$$$$
