49830987
  -OEChem-03202503542D

 44 46  0     0  0  0  0  0  0999 V2000
    5.5981    4.8100    0.0000 Cl  0  0  0  0  0  0  0  0  0  0  0  0
    3.0000   -4.6900    0.0000 F   0  0  0  0  0  0  0  0  0  0  0  0
    2.0000   -3.6900    0.0000 F   0  0  0  0  0  0  0  0  0  0  0  0
    4.0000   -3.6900    0.0000 F   0  0  0  0  0  0  0  0  0  0  0  0
    3.8660    0.8100    0.0000 O   0  0  0  0  0  0  0  0  0  0  0  0
    2.1340   -2.1900    0.0000 O   0  0  0  0  0  0  0  0  0  0  0  0
    7.3301   -1.1900    0.0000 N   0  0  0  0  0  0  0  0  0  0  0  0
    3.8660   -2.1900    0.0000 N   0  0  0  0  0  0  0  0  0  0  0  0
    8.1962   -2.6900    0.0000 N   0  0  0  0  0  0  0  0  0  0  0  0
    6.4641   -2.6900    0.0000 N   0  0  0  0  0  0  0  0  0  0  0  0
    7.3301   -4.1900    0.0000 N   0  0  0  0  0  0  0  0  0  0  0  0
    9.0622   -4.1900    0.0000 N   0  0  0  0  0  0  0  0  0  0  0  0
    4.7320   -0.6900    0.0000 C   0  0  0  0  0  0  0  0  0  0  0  0
    5.5981    0.8100    0.0000 C   0  0  0  0  0  0  0  0  0  0  0  0
    4.7320    0.3100    0.0000 C   0  0  0  0  0  0  0  0  0  0  0  0
    6.4641   -0.6900    0.0000 C   0  0  0  0  0  0  0  0  0  0  0  0
    3.8660   -1.1900    0.0000 C   0  0  0  0  0  0  0  0  0  0  0  0
    5.5981   -1.1900    0.0000 C   0  0  0  0  0  0  0  0  0  0  0  0
    6.4641    0.3100    0.0000 C   0  0  0  0  0  0  0  0  0  0  0  0
    5.5981    1.8100    0.0000 C   0  0  0  0  0  0  0  0  0  0  0  0
    6.4641    2.3100    0.0000 C   0  0  0  0  0  0  0  0  0  0  0  0
    4.7320    2.3100    0.0000 C   0  0  0  0  0  0  0  0  0  0  0  0
    6.4641    3.3100    0.0000 C   0  0  0  0  0  0  0  0  0  0  0  0
    4.7320    3.3100    0.0000 C   0  0  0  0  0  0  0  0  0  0  0  0
    7.3301   -2.1900    0.0000 C   0  0  0  0  0  0  0  0  0  0  0  0
    5.5981    3.8100    0.0000 C   0  0  0  0  0  0  0  0  0  0  0  0
    3.0000   -2.6900    0.0000 C   0  0  0  0  0  0  0  0  0  0  0  0
    3.0000   -3.6900    0.0000 C   0  0  0  0  0  0  0  0  0  0  0  0
    8.1962   -3.6900    0.0000 C   0  0  0  0  0  0  0  0  0  0  0  0
    6.4641   -3.6900    0.0000 C   0  0  0  0  0  0  0  0  0  0  0  0
    3.6540   -0.6074    0.0000 H   0  0  0  0  0  0  0  0  0  0  0  0
    3.2554   -1.2977    0.0000 H   0  0  0  0  0  0  0  0  0  0  0  0
    5.5981   -1.8100    0.0000 H   0  0  0  0  0  0  0  0  0  0  0  0
    7.0010    0.6200    0.0000 H   0  0  0  0  0  0  0  0  0  0  0  0
    7.8671   -0.8800    0.0000 H   0  0  0  0  0  0  0  0  0  0  0  0
    4.4030   -2.5000    0.0000 H   0  0  0  0  0  0  0  0  0  0  0  0
    7.0010    2.0000    0.0000 H   0  0  0  0  0  0  0  0  0  0  0  0
    4.1951    2.0000    0.0000 H   0  0  0  0  0  0  0  0  0  0  0  0
    3.3291    0.5000    0.0000 H   0  0  0  0  0  0  0  0  0  0  0  0
    7.0010    3.6200    0.0000 H   0  0  0  0  0  0  0  0  0  0  0  0
    4.1951    3.6200    0.0000 H   0  0  0  0  0  0  0  0  0  0  0  0
    5.9272   -4.0000    0.0000 H   0  0  0  0  0  0  0  0  0  0  0  0
    9.0622   -4.8100    0.0000 H   0  0  0  0  0  0  0  0  0  0  0  0
    9.5991   -3.8800    0.0000 H   0  0  0  0  0  0  0  0  0  0  0  0
  1 26  1  0  0  0  0
  2 28  1  0  0  0  0
  3 28  1  0  0  0  0
  4 28  1  0  0  0  0
  5 15  1  0  0  0  0
  5 39  1  0  0  0  0
  6 27  2  0  0  0  0
  7 16  1  0  0  0  0
  7 25  1  0  0  0  0
  7 35  1  0  0  0  0
  8 17  1  0  0  0  0
  8 27  1  0  0  0  0
  8 36  1  0  0  0  0
  9 25  1  0  0  0  0
  9 29  2  0  0  0  0
 10 25  2  0  0  0  0
 10 30  1  0  0  0  0
 11 29  1  0  0  0  0
 11 30  2  0  0  0  0
 12 29  1  0  0  0  0
 12 43  1  0  0  0  0
 12 44  1  0  0  0  0
 13 15  2  0  0  0  0
 13 17  1  0  0  0  0
 13 18  1  0  0  0  0
 14 15  1  0  0  0  0
 14 19  2  0  0  0  0
 14 20  1  0  0  0  0
 16 18  2  0  0  0  0
 16 19  1  0  0  0  0
 17 31  1  0  0  0  0
 17 32  1  0  0  0  0
 18 33  1  0  0  0  0
 19 34  1  0  0  0  0
 20 21  2  0  0  0  0
 20 22  1  0  0  0  0
 21 23  1  0  0  0  0
 21 37  1  0  0  0  0
 22 24  2  0  0  0  0
 22 38  1  0  0  0  0
 23 26  2  0  0  0  0
 23 40  1  0  0  0  0
 24 26  1  0  0  0  0
 24 41  1  0  0  0  0
 27 28  1  0  0  0  0
 30 42  1  0  0  0  0
M  END
> <PUBCHEM_COMPOUND_CID>
49830987

> <PUBCHEM_COMPOUND_CANONICALIZED>
1

> <PUBCHEM_CACTVS_COMPLEXITY>
579

> <PUBCHEM_CACTVS_HBOND_ACCEPTOR>
10

> <PUBCHEM_CACTVS_HBOND_DONOR>
4

> <PUBCHEM_CACTVS_ROTATABLE_BOND>
5

> <PUBCHEM_CACTVS_SUBSKEYS>
AAADccB7sYAEAAAAAAAAAAAAAAAAAAAAAAA8YIAAAAAAAAAB0AAAHwIQCAAADA7BmDQ11obIEgCoAiVTdACCAAkxJ4AJyIAMboiILiLDm5OEcAhu1hPI2CewwOAOhEACQAAIAAAIgASAABAAAAAAAAAAAA==

> <PUBCHEM_IUPAC_OPENEYE_NAME>
N-[[5-[(4-amino-1,3,5-triazin-2-yl)amino]-3-(4-chlorophenyl)-2-hydroxy-phenyl]methyl]-2,2,2-trifluoro-acetamide

> <PUBCHEM_IUPAC_CAS_NAME>
N-[[5-[(4-amino-1,3,5-triazin-2-yl)amino]-3-(4-chlorophenyl)-2-hydroxyphenyl]methyl]-2,2,2-trifluoroacetamide

> <PUBCHEM_IUPAC_NAME_MARKUP>
<I>N</I>-[[5-[(4-amino-1,3,5-triazin-2-yl)amino]-3-(4-chlorophenyl)-2-hydroxyphenyl]methyl]-2,2,2-trifluoroacetamide

> <PUBCHEM_IUPAC_NAME>
N-[[5-[(4-amino-1,3,5-triazin-2-yl)amino]-3-(4-chlorophenyl)-2-hydroxyphenyl]methyl]-2,2,2-trifluoroacetamide

> <PUBCHEM_IUPAC_SYSTEMATIC_NAME>
N-[[5-[(4-azanyl-1,3,5-triazin-2-yl)amino]-3-(4-chlorophenyl)-2-oxidanyl-phenyl]methyl]-2,2,2-tris(fluoranyl)ethanamide

> <PUBCHEM_IUPAC_TRADITIONAL_NAME>
N-[5-[(4-amino-s-triazin-2-yl)amino]-3-(4-chlorophenyl)-2-hydroxy-benzyl]-2,2,2-trifluoro-acetamide

> <PUBCHEM_IUPAC_INCHI>
InChI=1S/C18H14ClF3N6O2/c19-11-3-1-9(2-4-11)13-6-12(27-17-26-8-25-16(23)28-17)5-10(14(13)29)7-24-15(30)18(20,21)22/h1-6,8,29H,7H2,(H,24,30)(H3,23,25,26,27,28)

> <PUBCHEM_IUPAC_INCHIKEY>
IUUVJFSKAMMCEA-UHFFFAOYSA-N

> <PUBCHEM_XLOGP3_AA>
4.2

> <PUBCHEM_EXACT_MASS>
438.0818859

> <PUBCHEM_MOLECULAR_FORMULA>
C18H14ClF3N6O2

> <PUBCHEM_MOLECULAR_WEIGHT>
438.8

> <PUBCHEM_SMILES>
C1=CC(=CC=C1C2=CC(=CC(=C2O)CNC(=O)C(F)(F)F)NC3=NC=NC(=N3)N)Cl

> <PUBCHEM_OPENEYE_CAN_SMILES>
C1=CC(=CC=C1C2=CC(=CC(=C2O)CNC(=O)C(F)(F)F)NC3=NC=NC(=N3)N)Cl

> <PUBCHEM_OPENEYE_ISO_SMILES>
C1=CC(=CC=C1C2=CC(=CC(=C2O)CNC(=O)C(F)(F)F)NC3=NC=NC(=N3)N)Cl

> <PUBCHEM_CACTVS_TPSA>
126

> <PUBCHEM_MONOISOTOPIC_WEIGHT>
438.0818859

> <PUBCHEM_TOTAL_CHARGE>
0

> <PUBCHEM_HEAVY_ATOM_COUNT>
30

> <PUBCHEM_ATOM_DEF_STEREO_COUNT>
0

> <PUBCHEM_ATOM_UDEF_STEREO_COUNT>
0

> <PUBCHEM_BOND_DEF_STEREO_COUNT>
0

> <PUBCHEM_BOND_UDEF_STEREO_COUNT>
0

> <PUBCHEM_ISOTOPIC_ATOM_COUNT>
0

> <PUBCHEM_COMPONENT_COUNT>
1

> <PUBCHEM_CACTVS_TAUTO_COUNT>
-1

> <PUBCHEM_COORDINATE_TYPE>
1
5
255

> <PUBCHEM_BONDANNOTATIONS>
10  25  8
10  30  8
11  29  8
11  30  8
13  15  8
13  18  8
14  15  8
14  19  8
16  18  8
16  19  8
20  21  8
20  22  8
21  23  8
22  24  8
23  26  8
24  26  8
9  25  8
9  29  8

$$$$
