49830887
  -OEChem-03202501592D

 29 31  0     0  0  0  0  0  0999 V2000
    2.8660   -0.3030    0.0000 O   0  0  0  0  0  0  0  0  0  0  0  0
    6.4103   -2.1077    0.0000 N   0  0  0  0  0  0  0  0  0  0  0  0
    3.7320   -0.8030    0.0000 N   0  0  0  0  0  0  0  0  0  0  0  0
    4.5981   -2.3030    0.0000 N   0  0  0  0  0  0  0  0  0  0  0  0
    5.4641   -0.8030    0.0000 C   0  0  0  0  0  0  0  0  0  0  0  0
    4.5981   -0.3030    0.0000 C   0  0  0  0  0  0  0  0  0  0  0  0
    4.5981    0.6970    0.0000 C   0  0  0  0  0  0  0  0  0  0  0  0
    5.4641   -1.8030    0.0000 C   0  0  0  0  0  0  0  0  0  0  0  0
    3.7320    1.1970    0.0000 C   0  0  0  0  0  0  0  0  0  0  0  0
    6.4103   -0.4982    0.0000 C   0  0  0  0  0  0  0  0  0  0  0  0
    5.4641    1.1970    0.0000 C   0  0  0  0  0  0  0  0  0  0  0  0
    6.9939   -1.3030    0.0000 C   0  0  0  0  0  0  0  0  0  0  0  0
    3.7320    2.1970    0.0000 C   0  0  0  0  0  0  0  0  0  0  0  0
    2.8660    0.6970    0.0000 C   0  0  0  0  0  0  0  0  0  0  0  0
    5.4641    2.1970    0.0000 C   0  0  0  0  0  0  0  0  0  0  0  0
    4.5981    2.6970    0.0000 C   0  0  0  0  0  0  0  0  0  0  0  0
    3.7320   -1.8030    0.0000 C   0  0  0  0  0  0  0  0  0  0  0  0
    2.0000    1.1970    0.0000 C   0  0  0  0  0  0  0  0  0  0  0  0
    6.6029    0.0911    0.0000 H   0  0  0  0  0  0  0  0  0  0  0  0
    6.0010    0.8870    0.0000 H   0  0  0  0  0  0  0  0  0  0  0  0
    6.6029   -2.6970    0.0000 H   0  0  0  0  0  0  0  0  0  0  0  0
    7.6139   -1.3030    0.0000 H   0  0  0  0  0  0  0  0  0  0  0  0
    3.1951    2.5070    0.0000 H   0  0  0  0  0  0  0  0  0  0  0  0
    6.0010    2.5070    0.0000 H   0  0  0  0  0  0  0  0  0  0  0  0
    4.5981    3.3170    0.0000 H   0  0  0  0  0  0  0  0  0  0  0  0
    3.1951   -2.1130    0.0000 H   0  0  0  0  0  0  0  0  0  0  0  0
    2.3100    1.7340    0.0000 H   0  0  0  0  0  0  0  0  0  0  0  0
    1.4631    1.5070    0.0000 H   0  0  0  0  0  0  0  0  0  0  0  0
    1.6900    0.6601    0.0000 H   0  0  0  0  0  0  0  0  0  0  0  0
  1 14  2  0  0  0  0
  2  8  1  0  0  0  0
  2 12  1  0  0  0  0
  2 21  1  0  0  0  0
  3  6  1  0  0  0  0
  3 17  2  0  0  0  0
  4  8  2  0  0  0  0
  4 17  1  0  0  0  0
  5  6  2  0  0  0  0
  5  8  1  0  0  0  0
  5 10  1  0  0  0  0
  6  7  1  0  0  0  0
  7  9  1  0  0  0  0
  7 11  2  0  0  0  0
  9 13  2  0  0  0  0
  9 14  1  0  0  0  0
 10 12  2  0  0  0  0
 10 19  1  0  0  0  0
 11 15  1  0  0  0  0
 11 20  1  0  0  0  0
 12 22  1  0  0  0  0
 13 16  1  0  0  0  0
 13 23  1  0  0  0  0
 14 18  1  0  0  0  0
 15 16  2  0  0  0  0
 15 24  1  0  0  0  0
 16 25  1  0  0  0  0
 17 26  1  0  0  0  0
 18 27  1  0  0  0  0
 18 28  1  0  0  0  0
 18 29  1  0  0  0  0
M  END
> <PUBCHEM_COMPOUND_CID>
49830887

> <PUBCHEM_COMPOUND_CANONICALIZED>
1

> <PUBCHEM_CACTVS_COMPLEXITY>
320

> <PUBCHEM_CACTVS_HBOND_ACCEPTOR>
3

> <PUBCHEM_CACTVS_HBOND_DONOR>
1

> <PUBCHEM_CACTVS_ROTATABLE_BOND>
2

> <PUBCHEM_CACTVS_SUBSKEYS>
AAADccBzIAAAAAAAAAAAAAAAAAAAAWAAAAA8QAAAAAAAAFgB/AAAHgAQAAAADAzBnwQ/sN7JkACoA7Z3ZACCgCm1AqAJ2aE4ZNiIKPLA3dGEJQhokALIyacciMCOgAAAAAAQAAAAAAAAACAAAAAAAAAAAA==

> <PUBCHEM_IUPAC_OPENEYE_NAME>
1-[2-(7H-pyrrolo[2,3-d]pyrimidin-4-yl)phenyl]ethanone

> <PUBCHEM_IUPAC_CAS_NAME>
1-[2-(7H-pyrrolo[2,3-d]pyrimidin-4-yl)phenyl]ethanone

> <PUBCHEM_IUPAC_NAME_MARKUP>
1-[2-(7<I>H</I>-pyrrolo[2,3-d]pyrimidin-4-yl)phenyl]ethanone

> <PUBCHEM_IUPAC_NAME>
1-[2-(7H-pyrrolo[2,3-d]pyrimidin-4-yl)phenyl]ethanone

> <PUBCHEM_IUPAC_SYSTEMATIC_NAME>
1-[2-(7H-pyrrolo[2,3-d]pyrimidin-4-yl)phenyl]ethanone

> <PUBCHEM_IUPAC_TRADITIONAL_NAME>
1-[2-(7H-pyrrolo[2,3-d]pyrimidin-4-yl)phenyl]ethanone

> <PUBCHEM_IUPAC_INCHI>
InChI=1S/C14H11N3O/c1-9(18)10-4-2-3-5-11(10)13-12-6-7-15-14(12)17-8-16-13/h2-8H,1H3,(H,15,16,17)

> <PUBCHEM_IUPAC_INCHIKEY>
GMXNHZVARFMXAY-UHFFFAOYSA-N

> <PUBCHEM_XLOGP3_AA>
2

> <PUBCHEM_EXACT_MASS>
237.090211983

> <PUBCHEM_MOLECULAR_FORMULA>
C14H11N3O

> <PUBCHEM_MOLECULAR_WEIGHT>
237.26

> <PUBCHEM_SMILES>
CC(=O)C1=CC=CC=C1C2=C3C=CNC3=NC=N2

> <PUBCHEM_OPENEYE_CAN_SMILES>
CC(=O)C1=CC=CC=C1C2=C3C=CNC3=NC=N2

> <PUBCHEM_OPENEYE_ISO_SMILES>
CC(=O)C1=CC=CC=C1C2=C3C=CNC3=NC=N2

> <PUBCHEM_CACTVS_TPSA>
58.6

> <PUBCHEM_MONOISOTOPIC_WEIGHT>
237.090211983

> <PUBCHEM_TOTAL_CHARGE>
0

> <PUBCHEM_HEAVY_ATOM_COUNT>
18

> <PUBCHEM_ATOM_DEF_STEREO_COUNT>
0

> <PUBCHEM_ATOM_UDEF_STEREO_COUNT>
0

> <PUBCHEM_BOND_DEF_STEREO_COUNT>
0

> <PUBCHEM_BOND_UDEF_STEREO_COUNT>
0

> <PUBCHEM_ISOTOPIC_ATOM_COUNT>
0

> <PUBCHEM_COMPONENT_COUNT>
1

> <PUBCHEM_CACTVS_TAUTO_COUNT>
-1

> <PUBCHEM_COORDINATE_TYPE>
1
5
255

> <PUBCHEM_BONDANNOTATIONS>
10  12  8
11  15  8
13  16  8
15  16  8
2  12  8
2  8  8
3  17  8
3  6  8
4  17  8
4  8  8
5  10  8
5  6  8
5  8  8
7  11  8
7  9  8
9  13  8

$$$$
