25166655
  -OEChem-03202502312D

 40 43  0     0  0  0  0  0  0999 V2000
    5.3457   -0.2005    0.0000 N   0  0  0  0  0  0  0  0  0  0  0  0
    5.8457    0.6655    0.0000 N   0  0  0  0  0  0  0  0  0  0  0  0
    6.8238    0.4576    0.0000 N   0  0  0  0  0  0  0  0  0  0  0  0
   10.4726   -2.3417    0.0000 N   0  0  0  0  0  0  0  0  0  0  0  0
   11.0562   -1.5370    0.0000 N   0  0  0  0  0  0  0  0  0  0  0  0
    4.3511   -0.3051    0.0000 C   0  0  0  0  0  0  0  0  0  0  0  0
    3.7634    0.5040    0.0000 C   0  0  0  0  0  0  0  0  0  0  0  0
    2.7688    0.3994    0.0000 C   0  0  0  0  0  0  0  0  0  0  0  0
    7.7944   -1.0370    0.0000 C   0  0  0  0  0  0  0  0  0  0  0  0
    6.9283   -0.5369    0.0000 C   0  0  0  0  0  0  0  0  0  0  0  0
    4.1701    1.4175    0.0000 C   0  0  0  0  0  0  0  0  0  0  0  0
    6.0148   -0.9437    0.0000 C   0  0  0  0  0  0  0  0  0  0  0  0
    2.1810    1.2084    0.0000 C   0  0  0  0  0  0  0  0  0  0  0  0
    2.5878    2.1220    0.0000 C   0  0  0  0  0  0  0  0  0  0  0  0
    9.5264   -1.0370    0.0000 C   0  0  0  0  0  0  0  0  0  0  0  0
    8.6604   -0.5369    0.0000 C   0  0  0  0  0  0  0  0  0  0  0  0
    9.5264   -2.0370    0.0000 C   0  0  0  0  0  0  0  0  0  0  0  0
    3.5823    2.2265    0.0000 C   0  0  0  0  0  0  0  0  0  0  0  0
    7.7944   -2.0370    0.0000 C   0  0  0  0  0  0  0  0  0  0  0  0
    2.3621   -0.5141    0.0000 C   0  0  0  0  0  0  0  0  0  0  0  0
    8.6604   -2.5370    0.0000 C   0  0  0  0  0  0  0  0  0  0  0  0
    2.0000    2.9310    0.0000 C   0  0  0  0  0  0  0  0  0  0  0  0
   10.4726   -0.7322    0.0000 C   0  0  0  0  0  0  0  0  0  0  0  0
    3.7939   -0.5769    0.0000 H   0  0  0  0  0  0  0  0  0  0  0  0
    4.5220   -0.9010    0.0000 H   0  0  0  0  0  0  0  0  0  0  0  0
    4.7867    1.4823    0.0000 H   0  0  0  0  0  0  0  0  0  0  0  0
    5.8859   -1.5501    0.0000 H   0  0  0  0  0  0  0  0  0  0  0  0
    1.5644    1.1436    0.0000 H   0  0  0  0  0  0  0  0  0  0  0  0
    8.6604    0.0831    0.0000 H   0  0  0  0  0  0  0  0  0  0  0  0
    3.8345    2.7929    0.0000 H   0  0  0  0  0  0  0  0  0  0  0  0
    7.2574   -2.3470    0.0000 H   0  0  0  0  0  0  0  0  0  0  0  0
    1.7957   -0.2619    0.0000 H   0  0  0  0  0  0  0  0  0  0  0  0
    2.1099   -1.0805    0.0000 H   0  0  0  0  0  0  0  0  0  0  0  0
    2.9285   -0.7663    0.0000 H   0  0  0  0  0  0  0  0  0  0  0  0
    8.6604   -3.1570    0.0000 H   0  0  0  0  0  0  0  0  0  0  0  0
   10.6652   -0.1429    0.0000 H   0  0  0  0  0  0  0  0  0  0  0  0
    2.5016    3.2954    0.0000 H   0  0  0  0  0  0  0  0  0  0  0  0
    1.6356    3.4326    0.0000 H   0  0  0  0  0  0  0  0  0  0  0  0
    1.4984    2.5666    0.0000 H   0  0  0  0  0  0  0  0  0  0  0  0
   10.6652   -2.9310    0.0000 H   0  0  0  0  0  0  0  0  0  0  0  0
  1  2  1  0  0  0  0
  1  6  1  0  0  0  0
  1 12  1  0  0  0  0
  2  3  2  0  0  0  0
  3 10  1  0  0  0  0
  4  5  1  0  0  0  0
  4 17  1  0  0  0  0
  4 40  1  0  0  0  0
  5 23  2  0  0  0  0
  6  7  1  0  0  0  0
  6 24  1  0  0  0  0
  6 25  1  0  0  0  0
  7  8  2  0  0  0  0
  7 11  1  0  0  0  0
  8 13  1  0  0  0  0
  8 20  1  0  0  0  0
  9 10  1  0  0  0  0
  9 16  2  0  0  0  0
  9 19  1  0  0  0  0
 10 12  2  0  0  0  0
 11 18  2  0  0  0  0
 11 26  1  0  0  0  0
 12 27  1  0  0  0  0
 13 14  2  0  0  0  0
 13 28  1  0  0  0  0
 14 18  1  0  0  0  0
 14 22  1  0  0  0  0
 15 16  1  0  0  0  0
 15 17  2  0  0  0  0
 15 23  1  0  0  0  0
 16 29  1  0  0  0  0
 17 21  1  0  0  0  0
 18 30  1  0  0  0  0
 19 21  2  0  0  0  0
 19 31  1  0  0  0  0
 20 32  1  0  0  0  0
 20 33  1  0  0  0  0
 20 34  1  0  0  0  0
 21 35  1  0  0  0  0
 22 37  1  0  0  0  0
 22 38  1  0  0  0  0
 22 39  1  0  0  0  0
 23 36  1  0  0  0  0
M  END
> <PUBCHEM_COMPOUND_CID>
25166655

> <PUBCHEM_COMPOUND_CANONICALIZED>
1

> <PUBCHEM_CACTVS_COMPLEXITY>
403

> <PUBCHEM_CACTVS_HBOND_ACCEPTOR>
3

> <PUBCHEM_CACTVS_HBOND_DONOR>
1

> <PUBCHEM_CACTVS_ROTATABLE_BOND>
3

> <PUBCHEM_CACTVS_SUBSKEYS>
AAADceB7gAAAAAAAAAAAAAAAAAAAAWLAAAAwYAAAAAAAAFgB/AAAHAAYAAAADAjBHgQ+wPJrAACiAzRnRACSBAQxkgAY+SA4dJgIYKLA0dGUpAhgmADIyAcQgMAOyAACAAASAACQAAQAACQAAAAAAAAAAA==

> <PUBCHEM_IUPAC_OPENEYE_NAME>
5-[1-[(2,4-dimethylphenyl)methyl]triazol-4-yl]-1H-indazole

> <PUBCHEM_IUPAC_CAS_NAME>
5-[1-[(2,4-dimethylphenyl)methyl]-4-triazolyl]-1H-indazole

> <PUBCHEM_IUPAC_NAME_MARKUP>
5-[1-[(2,4-dimethylphenyl)methyl]triazol-4-yl]-1<I>H</I>-indazole

> <PUBCHEM_IUPAC_NAME>
5-[1-[(2,4-dimethylphenyl)methyl]triazol-4-yl]-1H-indazole

> <PUBCHEM_IUPAC_SYSTEMATIC_NAME>
5-[1-[(2,4-dimethylphenyl)methyl]-1,2,3-triazol-4-yl]-1H-indazole

> <PUBCHEM_IUPAC_TRADITIONAL_NAME>
5-[1-(2,4-dimethylbenzyl)triazol-4-yl]-1H-indazole

> <PUBCHEM_IUPAC_INCHI>
InChI=1S/C18H17N5/c1-12-3-4-15(13(2)7-12)10-23-11-18(21-22-23)14-5-6-17-16(8-14)9-19-20-17/h3-9,11H,10H2,1-2H3,(H,19,20)

> <PUBCHEM_IUPAC_INCHIKEY>
OPOGDZANLATWGS-UHFFFAOYSA-N

> <PUBCHEM_XLOGP3_AA>
3.3

> <PUBCHEM_EXACT_MASS>
303.14839556

> <PUBCHEM_MOLECULAR_FORMULA>
C18H17N5

> <PUBCHEM_MOLECULAR_WEIGHT>
303.4

> <PUBCHEM_SMILES>
CC1=CC(=C(C=C1)CN2C=C(N=N2)C3=CC4=C(C=C3)NN=C4)C

> <PUBCHEM_OPENEYE_CAN_SMILES>
CC1=CC(=C(C=C1)CN2C=C(N=N2)C3=CC4=C(C=C3)NN=C4)C

> <PUBCHEM_OPENEYE_ISO_SMILES>
CC1=CC(=C(C=C1)CN2C=C(N=N2)C3=CC4=C(C=C3)NN=C4)C

> <PUBCHEM_CACTVS_TPSA>
59.4

> <PUBCHEM_MONOISOTOPIC_WEIGHT>
303.14839556

> <PUBCHEM_TOTAL_CHARGE>
0

> <PUBCHEM_HEAVY_ATOM_COUNT>
23

> <PUBCHEM_ATOM_DEF_STEREO_COUNT>
0

> <PUBCHEM_ATOM_UDEF_STEREO_COUNT>
0

> <PUBCHEM_BOND_DEF_STEREO_COUNT>
0

> <PUBCHEM_BOND_UDEF_STEREO_COUNT>
0

> <PUBCHEM_ISOTOPIC_ATOM_COUNT>
0

> <PUBCHEM_COMPONENT_COUNT>
1

> <PUBCHEM_CACTVS_TAUTO_COUNT>
-1

> <PUBCHEM_COORDINATE_TYPE>
1
5
255

> <PUBCHEM_BONDANNOTATIONS>
1  12  8
1  2  8
10  12  8
11  18  8
13  14  8
14  18  8
15  16  8
15  17  8
15  23  8
17  21  8
19  21  8
2  3  8
3  10  8
4  17  8
4  5  8
5  23  8
7  11  8
7  8  8
8  13  8
9  16  8
9  19  8

$$$$
