46929857
  -OEChem-03202500072D

 61 66  0     0  0  0  0  0  0999 V2000
    4.6660    6.0000    0.0000 F   0  0  0  0  0  0  0  0  0  0  0  0
    8.1301   -3.0000    0.0000 O   0  0  0  0  0  0  0  0  0  0  0  0
    4.6660   -1.0000    0.0000 N   0  0  0  0  0  0  0  0  0  0  0  0
    5.5321    1.5000    0.0000 N   0  0  0  0  0  0  0  0  0  0  0  0
    5.5321    0.5000    0.0000 N   0  0  0  0  0  0  0  0  0  0  0  0
    7.2641   -4.5000    0.0000 N   0  0  0  0  0  0  0  0  0  0  0  0
    9.8622   -3.0000    0.0000 N   0  0  0  0  0  0  0  0  0  0  0  0
   11.5942   -3.0000    0.0000 N   0  0  0  0  0  0  0  0  0  0  0  0
   10.7282   -1.5000    0.0000 N   0  0  0  0  0  0  0  0  0  0  0  0
    3.8000    1.5000    0.0000 C   0  0  0  0  0  0  0  0  0  0  0  0
    3.8000    0.5000    0.0000 C   0  0  0  0  0  0  0  0  0  0  0  0
    4.6660    2.0000    0.0000 C   0  0  0  0  0  0  0  0  0  0  0  0
    4.6660    0.0000    0.0000 C   0  0  0  0  0  0  0  0  0  0  0  0
    4.6660    3.0000    0.0000 C   0  0  0  0  0  0  0  0  0  0  0  0
    2.9061    2.0347    0.0000 C   0  0  0  0  0  0  0  0  0  0  0  0
    2.9061   -0.0347    0.0000 C   0  0  0  0  0  0  0  0  0  0  0  0
    5.5321   -1.5000    0.0000 C   0  0  0  0  0  0  0  0  0  0  0  0
    2.0000    1.5208    0.0000 C   0  0  0  0  0  0  0  0  0  0  0  0
    2.0000    0.4792    0.0000 C   0  0  0  0  0  0  0  0  0  0  0  0
    5.5321    3.5000    0.0000 C   0  0  0  0  0  0  0  0  0  0  0  0
    3.8000    3.5000    0.0000 C   0  0  0  0  0  0  0  0  0  0  0  0
    5.5321   -2.5000    0.0000 C   0  0  0  0  0  0  0  0  0  0  0  0
    6.3981   -1.0000    0.0000 C   0  0  0  0  0  0  0  0  0  0  0  0
    7.2641   -2.5000    0.0000 C   0  0  0  0  0  0  0  0  0  0  0  0
    6.3981   -3.0000    0.0000 C   0  0  0  0  0  0  0  0  0  0  0  0
    7.2641   -1.5000    0.0000 C   0  0  0  0  0  0  0  0  0  0  0  0
    5.5321    4.5000    0.0000 C   0  0  0  0  0  0  0  0  0  0  0  0
    3.8000    4.5000    0.0000 C   0  0  0  0  0  0  0  0  0  0  0  0
    8.9962   -4.5000    0.0000 C   0  0  0  0  0  0  0  0  0  0  0  0
    8.1301   -4.0000    0.0000 C   0  0  0  0  0  0  0  0  0  0  0  0
    4.6660    5.0000    0.0000 C   0  0  0  0  0  0  0  0  0  0  0  0
    9.8622   -4.0000    0.0000 C   0  0  0  0  0  0  0  0  0  0  0  0
    8.9962   -5.5000    0.0000 C   0  0  0  0  0  0  0  0  0  0  0  0
   10.7282   -4.5000    0.0000 C   0  0  0  0  0  0  0  0  0  0  0  0
    8.1301   -6.0000    0.0000 C   0  0  0  0  0  0  0  0  0  0  0  0
    7.2641   -5.5000    0.0000 C   0  0  0  0  0  0  0  0  0  0  0  0
   10.7282   -2.5000    0.0000 C   0  0  0  0  0  0  0  0  0  0  0  0
   11.5942   -4.0000    0.0000 C   0  0  0  0  0  0  0  0  0  0  0  0
    9.8622   -1.0000    0.0000 C   0  0  0  0  0  0  0  0  0  0  0  0
    2.9132    2.6546    0.0000 H   0  0  0  0  0  0  0  0  0  0  0  0
    2.9132   -0.6546    0.0000 H   0  0  0  0  0  0  0  0  0  0  0  0
    4.1291   -1.3100    0.0000 H   0  0  0  0  0  0  0  0  0  0  0  0
    1.4643    1.8329    0.0000 H   0  0  0  0  0  0  0  0  0  0  0  0
    1.4643    0.1671    0.0000 H   0  0  0  0  0  0  0  0  0  0  0  0
    6.0690    3.1900    0.0000 H   0  0  0  0  0  0  0  0  0  0  0  0
    3.2631    3.1900    0.0000 H   0  0  0  0  0  0  0  0  0  0  0  0
    4.9951   -2.8100    0.0000 H   0  0  0  0  0  0  0  0  0  0  0  0
    6.3981   -0.3800    0.0000 H   0  0  0  0  0  0  0  0  0  0  0  0
    6.3981   -3.6200    0.0000 H   0  0  0  0  0  0  0  0  0  0  0  0
    7.8010   -1.1900    0.0000 H   0  0  0  0  0  0  0  0  0  0  0  0
    6.0690    4.8100    0.0000 H   0  0  0  0  0  0  0  0  0  0  0  0
    3.2631    4.8100    0.0000 H   0  0  0  0  0  0  0  0  0  0  0  0
    9.5331   -5.8100    0.0000 H   0  0  0  0  0  0  0  0  0  0  0  0
   10.7282   -5.1200    0.0000 H   0  0  0  0  0  0  0  0  0  0  0  0
    8.1301   -6.6200    0.0000 H   0  0  0  0  0  0  0  0  0  0  0  0
    6.7272   -5.8100    0.0000 H   0  0  0  0  0  0  0  0  0  0  0  0
   12.1312   -4.3100    0.0000 H   0  0  0  0  0  0  0  0  0  0  0  0
   11.2651   -1.1900    0.0000 H   0  0  0  0  0  0  0  0  0  0  0  0
   10.1722   -0.4631    0.0000 H   0  0  0  0  0  0  0  0  0  0  0  0
    9.3252   -0.6900    0.0000 H   0  0  0  0  0  0  0  0  0  0  0  0
    9.5522   -1.5369    0.0000 H   0  0  0  0  0  0  0  0  0  0  0  0
  1 31  1  0  0  0  0
  2 24  1  0  0  0  0
  2 30  1  0  0  0  0
  3 13  1  0  0  0  0
  3 17  1  0  0  0  0
  3 42  1  0  0  0  0
  4  5  1  0  0  0  0
  4 12  2  0  0  0  0
  5 13  2  0  0  0  0
  6 30  1  0  0  0  0
  6 36  2  0  0  0  0
  7 32  2  0  0  0  0
  7 37  1  0  0  0  0
  8 37  2  0  0  0  0
  8 38  1  0  0  0  0
  9 37  1  0  0  0  0
  9 39  1  0  0  0  0
  9 58  1  0  0  0  0
 10 11  1  0  0  0  0
 10 12  1  0  0  0  0
 10 15  2  0  0  0  0
 11 13  1  0  0  0  0
 11 16  2  0  0  0  0
 12 14  1  0  0  0  0
 14 20  2  0  0  0  0
 14 21  1  0  0  0  0
 15 18  1  0  0  0  0
 15 40  1  0  0  0  0
 16 19  1  0  0  0  0
 16 41  1  0  0  0  0
 17 22  2  0  0  0  0
 17 23  1  0  0  0  0
 18 19  2  0  0  0  0
 18 43  1  0  0  0  0
 19 44  1  0  0  0  0
 20 27  1  0  0  0  0
 20 45  1  0  0  0  0
 21 28  2  0  0  0  0
 21 46  1  0  0  0  0
 22 25  1  0  0  0  0
 22 47  1  0  0  0  0
 23 26  2  0  0  0  0
 23 48  1  0  0  0  0
 24 25  2  0  0  0  0
 24 26  1  0  0  0  0
 25 49  1  0  0  0  0
 26 50  1  0  0  0  0
 27 31  2  0  0  0  0
 27 51  1  0  0  0  0
 28 31  1  0  0  0  0
 28 52  1  0  0  0  0
 29 30  2  0  0  0  0
 29 32  1  0  0  0  0
 29 33  1  0  0  0  0
 32 34  1  0  0  0  0
 33 35  2  0  0  0  0
 33 53  1  0  0  0  0
 34 38  2  0  0  0  0
 34 54  1  0  0  0  0
 35 36  1  0  0  0  0
 35 55  1  0  0  0  0
 36 56  1  0  0  0  0
 38 57  1  0  0  0  0
 39 59  1  0  0  0  0
 39 60  1  0  0  0  0
 39 61  1  0  0  0  0
M  END
> <PUBCHEM_COMPOUND_CID>
46929857

> <PUBCHEM_COMPOUND_CANONICALIZED>
1

> <PUBCHEM_CACTVS_COMPLEXITY>
747

> <PUBCHEM_CACTVS_HBOND_ACCEPTOR>
9

> <PUBCHEM_CACTVS_HBOND_DONOR>
2

> <PUBCHEM_CACTVS_ROTATABLE_BOND>
7

> <PUBCHEM_CACTVS_SUBSKEYS>
AAADceB7oQAAAAAAAAAAAAAAAAAAAAAAAAA8ePECAAAAAACx/gAAHwAYAAAADAzBngw/9tbIFACiAzZnZACSjCsxIqAd2KA+bJiMLuLE+duOvCj+2BPI6Cew0MIOgEAAAAAQAAAAgAAAACAAAAAAAAAAAA==

> <PUBCHEM_IUPAC_OPENEYE_NAME>
4-(4-fluorophenyl)-N-[4-[[3-[2-(methylamino)pyrimidin-4-yl]-2-pyridyl]oxy]phenyl]phthalazin-1-amine

> <PUBCHEM_IUPAC_CAS_NAME>
4-(4-fluorophenyl)-N-[4-[[3-[2-(methylamino)-4-pyrimidinyl]-2-pyridinyl]oxy]phenyl]-1-phthalazinamine

> <PUBCHEM_IUPAC_NAME_MARKUP>
4-(4-fluorophenyl)-<I>N</I>-[4-[3-[2-(methylamino)pyrimidin-4-yl]pyridin-2-yl]oxyphenyl]phthalazin-1-amine

> <PUBCHEM_IUPAC_NAME>
4-(4-fluorophenyl)-N-[4-[3-[2-(methylamino)pyrimidin-4-yl]pyridin-2-yl]oxyphenyl]phthalazin-1-amine

> <PUBCHEM_IUPAC_SYSTEMATIC_NAME>
4-(4-fluorophenyl)-N-[4-[3-[2-(methylamino)pyrimidin-4-yl]pyridin-2-yl]oxyphenyl]phthalazin-1-amine

> <PUBCHEM_IUPAC_TRADITIONAL_NAME>
[4-(4-fluorophenyl)phthalazin-1-yl]-[4-[[3-[2-(methylamino)pyrimidin-4-yl]-2-pyridyl]oxy]phenyl]amine

> <PUBCHEM_IUPAC_INCHI>
InChI=1S/C30H22FN7O/c1-32-30-34-18-16-26(36-30)25-7-4-17-33-29(25)39-22-14-12-21(13-15-22)35-28-24-6-3-2-5-23(24)27(37-38-28)19-8-10-20(31)11-9-19/h2-18H,1H3,(H,35,38)(H,32,34,36)

> <PUBCHEM_IUPAC_INCHIKEY>
DZICJKNDYKNBTO-UHFFFAOYSA-N

> <PUBCHEM_XLOGP3_AA>
5.8

> <PUBCHEM_EXACT_MASS>
515.18698651

> <PUBCHEM_MOLECULAR_FORMULA>
C30H22FN7O

> <PUBCHEM_MOLECULAR_WEIGHT>
515.5

> <PUBCHEM_SMILES>
CNC1=NC=CC(=N1)C2=C(N=CC=C2)OC3=CC=C(C=C3)NC4=NN=C(C5=CC=CC=C54)C6=CC=C(C=C6)F

> <PUBCHEM_OPENEYE_CAN_SMILES>
CNC1=NC=CC(=N1)C2=C(N=CC=C2)OC3=CC=C(C=C3)NC4=NN=C(C5=CC=CC=C54)C6=CC=C(C=C6)F

> <PUBCHEM_OPENEYE_ISO_SMILES>
CNC1=NC=CC(=N1)C2=C(N=CC=C2)OC3=CC=C(C=C3)NC4=NN=C(C5=CC=CC=C54)C6=CC=C(C=C6)F

> <PUBCHEM_CACTVS_TPSA>
97.7

> <PUBCHEM_MONOISOTOPIC_WEIGHT>
515.18698651

> <PUBCHEM_TOTAL_CHARGE>
0

> <PUBCHEM_HEAVY_ATOM_COUNT>
39

> <PUBCHEM_ATOM_DEF_STEREO_COUNT>
0

> <PUBCHEM_ATOM_UDEF_STEREO_COUNT>
0

> <PUBCHEM_BOND_DEF_STEREO_COUNT>
0

> <PUBCHEM_BOND_UDEF_STEREO_COUNT>
0

> <PUBCHEM_ISOTOPIC_ATOM_COUNT>
0

> <PUBCHEM_COMPONENT_COUNT>
1

> <PUBCHEM_CACTVS_TAUTO_COUNT>
-1

> <PUBCHEM_COORDINATE_TYPE>
1
5
255

> <PUBCHEM_BONDANNOTATIONS>
10  11  8
10  12  8
10  15  8
11  13  8
11  16  8
14  20  8
14  21  8
15  18  8
16  19  8
17  22  8
17  23  8
18  19  8
20  27  8
21  28  8
22  25  8
23  26  8
24  25  8
24  26  8
27  31  8
28  31  8
29  30  8
29  33  8
32  34  8
33  35  8
34  38  8
35  36  8
4  12  8
4  5  8
5  13  8
6  30  8
6  36  8
7  32  8
7  37  8
8  37  8
8  38  8

$$$$
