44410955
  -OEChem-03202505592D

 57 60  0     1  0  0  0  0  0999 V2000
   12.6260   -1.0474    0.0000 Cl  0  0  0  0  0  0  0  0  0  0  0  0
   10.9056   -0.0274    0.0000 F   0  0  0  0  0  0  0  0  0  0  0  0
    4.4374   -1.5268    0.0000 O   0  0  0  0  0  0  0  0  0  0  0  0
    5.6817    2.0272    0.0000 O   0  0  0  0  0  0  0  0  0  0  0  0
    4.8157    0.5272    0.0000 N   0  0  3  0  0  0  0  0  0  0  0  0
    2.7431   -1.1667    0.0000 N   0  0  0  0  0  0  0  0  0  0  0  0
    9.1737    2.0619    0.0000 N   0  0  0  0  0  0  0  0  0  0  0  0
    9.1621   -1.0074    0.0000 N   0  0  0  0  0  0  0  0  0  0  0  0
   10.0798    0.5064    0.0000 N   0  0  0  0  0  0  0  0  0  0  0  0
    3.9021    0.1205    0.0000 C   0  0  2  0  0  0  0  0  0  0  0  0
    3.2330    0.8637    0.0000 C   0  0  0  0  0  0  0  0  0  0  0  0
    4.7111    1.5218    0.0000 C   0  0  0  0  0  0  0  0  0  0  0  0
    3.7330    1.7297    0.0000 C   0  0  0  0  0  0  0  0  0  0  0  0
    5.6817    0.0272    0.0000 C   0  0  0  0  0  0  0  0  0  0  0  0
    3.6942   -0.8576    0.0000 C   0  0  0  0  0  0  0  0  0  0  0  0
    6.5477    0.5272    0.0000 C   0  0  0  0  0  0  0  0  0  0  0  0
    6.5477    1.5272    0.0000 C   0  0  0  0  0  0  0  0  0  0  0  0
    7.4137    0.0272    0.0000 C   0  0  0  0  0  0  0  0  0  0  0  0
    8.2798    0.5272    0.0000 C   0  0  0  0  0  0  0  0  0  0  0  0
    2.0000   -0.4975    0.0000 C   0  0  0  0  0  0  0  0  0  0  0  0
    2.5352   -2.1448    0.0000 C   0  0  0  0  0  0  0  0  0  0  0  0
    7.4137    2.0272    0.0000 C   0  0  0  0  0  0  0  0  0  0  0  0
    8.2798    1.5272    0.0000 C   0  0  0  0  0  0  0  0  0  0  0  0
    9.1737   -0.0074    0.0000 C   0  0  0  0  0  0  0  0  0  0  0  0
    5.6817    3.0272    0.0000 C   0  0  0  0  0  0  0  0  0  0  0  0
   10.0798    1.5481    0.0000 C   0  0  0  0  0  0  0  0  0  0  0  0
   10.0223   -1.5173    0.0000 C   0  0  0  0  0  0  0  0  0  0  0  0
   10.8941   -1.0274    0.0000 C   0  0  0  0  0  0  0  0  0  0  0  0
   10.0108   -2.5173    0.0000 C   0  0  0  0  0  0  0  0  0  0  0  0
   11.7543   -1.5374    0.0000 C   0  0  0  0  0  0  0  0  0  0  0  0
   10.8709   -3.0272    0.0000 C   0  0  0  0  0  0  0  0  0  0  0  0
   11.7427   -2.5373    0.0000 C   0  0  0  0  0  0  0  0  0  0  0  0
    4.3839   -0.2697    0.0000 H   0  0  0  0  0  0  0  0  0  0  0  0
    2.7314    1.2281    0.0000 H   0  0  0  0  0  0  0  0  0  0  0  0
    2.8181    0.4029    0.0000 H   0  0  0  0  0  0  0  0  0  0  0  0
    5.3311    1.5218    0.0000 H   0  0  0  0  0  0  0  0  0  0  0  0
    4.7759    2.1384    0.0000 H   0  0  0  0  0  0  0  0  0  0  0  0
    3.9246    2.3193    0.0000 H   0  0  0  0  0  0  0  0  0  0  0  0
    3.1666    1.9818    0.0000 H   0  0  0  0  0  0  0  0  0  0  0  0
    5.2832   -0.4477    0.0000 H   0  0  0  0  0  0  0  0  0  0  0  0
    6.0802   -0.4477    0.0000 H   0  0  0  0  0  0  0  0  0  0  0  0
    7.4137   -0.5928    0.0000 H   0  0  0  0  0  0  0  0  0  0  0  0
    2.4149   -0.0368    0.0000 H   0  0  0  0  0  0  0  0  0  0  0  0
    1.5392   -0.0827    0.0000 H   0  0  0  0  0  0  0  0  0  0  0  0
    1.5851   -0.9583    0.0000 H   0  0  0  0  0  0  0  0  0  0  0  0
    1.9288   -2.0159    0.0000 H   0  0  0  0  0  0  0  0  0  0  0  0
    2.4063   -2.7513    0.0000 H   0  0  0  0  0  0  0  0  0  0  0  0
    3.1417   -2.2737    0.0000 H   0  0  0  0  0  0  0  0  0  0  0  0
    7.4137    2.6472    0.0000 H   0  0  0  0  0  0  0  0  0  0  0  0
    8.6216   -1.3111    0.0000 H   0  0  0  0  0  0  0  0  0  0  0  0
    6.3017    3.0272    0.0000 H   0  0  0  0  0  0  0  0  0  0  0  0
    5.6817    3.6472    0.0000 H   0  0  0  0  0  0  0  0  0  0  0  0
    5.0617    3.0272    0.0000 H   0  0  0  0  0  0  0  0  0  0  0  0
   10.6155    1.8601    0.0000 H   0  0  0  0  0  0  0  0  0  0  0  0
    9.4703   -2.8210    0.0000 H   0  0  0  0  0  0  0  0  0  0  0  0
   10.8638   -3.6472    0.0000 H   0  0  0  0  0  0  0  0  0  0  0  0
   12.2760   -2.8535    0.0000 H   0  0  0  0  0  0  0  0  0  0  0  0
  1 30  1  0  0  0  0
  2 28  1  0  0  0  0
  3 15  2  0  0  0  0
  4 17  1  0  0  0  0
  4 25  1  0  0  0  0
  5 10  1  0  0  0  0
  5 12  1  0  0  0  0
  5 14  1  0  0  0  0
  6 15  1  0  0  0  0
  6 20  1  0  0  0  0
  6 21  1  0  0  0  0
  7 23  1  0  0  0  0
  7 26  2  0  0  0  0
  8 24  1  0  0  0  0
  8 27  1  0  0  0  0
  8 50  1  0  0  0  0
  9 24  2  0  0  0  0
  9 26  1  0  0  0  0
 10 11  1  0  0  0  0
 10 15  1  1  0  0  0
 10 33  1  0  0  0  0
 11 13  1  0  0  0  0
 11 34  1  0  0  0  0
 11 35  1  0  0  0  0
 12 13  1  0  0  0  0
 12 36  1  0  0  0  0
 12 37  1  0  0  0  0
 13 38  1  0  0  0  0
 13 39  1  0  0  0  0
 14 16  1  0  0  0  0
 14 40  1  0  0  0  0
 14 41  1  0  0  0  0
 16 17  1  0  0  0  0
 16 18  2  0  0  0  0
 17 22  2  0  0  0  0
 18 19  1  0  0  0  0
 18 42  1  0  0  0  0
 19 23  2  0  0  0  0
 19 24  1  0  0  0  0
 20 43  1  0  0  0  0
 20 44  1  0  0  0  0
 20 45  1  0  0  0  0
 21 46  1  0  0  0  0
 21 47  1  0  0  0  0
 21 48  1  0  0  0  0
 22 23  1  0  0  0  0
 22 49  1  0  0  0  0
 25 51  1  0  0  0  0
 25 52  1  0  0  0  0
 25 53  1  0  0  0  0
 26 54  1  0  0  0  0
 27 28  2  0  0  0  0
 27 29  1  0  0  0  0
 28 30  1  0  0  0  0
 29 31  2  0  0  0  0
 29 55  1  0  0  0  0
 30 32  2  0  0  0  0
 31 32  1  0  0  0  0
 31 56  1  0  0  0  0
 32 57  1  0  0  0  0
M  END
> <PUBCHEM_COMPOUND_CID>
44410955

> <PUBCHEM_COMPOUND_CANONICALIZED>
1

> <PUBCHEM_CACTVS_COMPLEXITY>
644

> <PUBCHEM_CACTVS_HBOND_ACCEPTOR>
7

> <PUBCHEM_CACTVS_HBOND_DONOR>
1

> <PUBCHEM_CACTVS_ROTATABLE_BOND>
6

> <PUBCHEM_CACTVS_SUBSKEYS>
AAADceB7sQAEAAAAAAAAAAAAAAAAAWAAAAA8YIAAAAAAAACx9AAAHwIQAAAADC7Bni439vfIFACoAydzdACCiCkxJ6AJ2CG+bpiMbvLF+/uUNChu0hvI6CeY0WMOKAACAgIKAABQAAQEBBQAAAAAAAAAAA==

> <PUBCHEM_IUPAC_OPENEYE_NAME>
(2R)-1-[[4-(3-chloro-2-fluoro-anilino)-7-methoxy-quinazolin-6-yl]methyl]-N,N-dimethyl-pyrrolidine-2-carboxamide

> <PUBCHEM_IUPAC_CAS_NAME>
(2R)-1-[[4-(3-chloro-2-fluoroanilino)-7-methoxy-6-quinazolinyl]methyl]-N,N-dimethyl-2-pyrrolidinecarboxamide

> <PUBCHEM_IUPAC_NAME_MARKUP>
(2<I>R</I>)-1-[[4-(3-chloro-2-fluoroanilino)-7-methoxyquinazolin-6-yl]methyl]-<I>N</I>,<I>N</I>-dimethylpyrrolidine-2-carboxamide

> <PUBCHEM_IUPAC_NAME>
(2R)-1-[[4-(3-chloro-2-fluoroanilino)-7-methoxyquinazolin-6-yl]methyl]-N,N-dimethylpyrrolidine-2-carboxamide

> <PUBCHEM_IUPAC_SYSTEMATIC_NAME>
(2R)-1-[[4-[(3-chloranyl-2-fluoranyl-phenyl)amino]-7-methoxy-quinazolin-6-yl]methyl]-N,N-dimethyl-pyrrolidine-2-carboxamide

> <PUBCHEM_IUPAC_TRADITIONAL_NAME>
(2R)-1-[[4-(3-chloro-2-fluoro-anilino)-7-methoxy-quinazolin-6-yl]methyl]-N,N-dimethyl-pyrrolidine-2-carboxamide

> <PUBCHEM_IUPAC_INCHI>
InChI=1S/C23H25ClFN5O2/c1-29(2)23(31)19-8-5-9-30(19)12-14-10-15-18(11-20(14)32-3)26-13-27-22(15)28-17-7-4-6-16(24)21(17)25/h4,6-7,10-11,13,19H,5,8-9,12H2,1-3H3,(H,26,27,28)/t19-/m1/s1

> <PUBCHEM_IUPAC_INCHIKEY>
ZZBAYSXOXCZQAE-LJQANCHMSA-N

> <PUBCHEM_XLOGP3_AA>
4

> <PUBCHEM_EXACT_MASS>
457.1680809

> <PUBCHEM_MOLECULAR_FORMULA>
C23H25ClFN5O2

> <PUBCHEM_MOLECULAR_WEIGHT>
457.9

> <PUBCHEM_SMILES>
CN(C)C(=O)[C@H]1CCCN1CC2=CC3=C(C=C2OC)N=CN=C3NC4=C(C(=CC=C4)Cl)F

> <PUBCHEM_OPENEYE_CAN_SMILES>
CN(C)C(=O)C1CCCN1CC2=CC3=C(C=C2OC)N=CN=C3NC4=C(C(=CC=C4)Cl)F

> <PUBCHEM_OPENEYE_ISO_SMILES>
CN(C)C(=O)[C@H]1CCCN1CC2=CC3=C(C=C2OC)N=CN=C3NC4=C(C(=CC=C4)Cl)F

> <PUBCHEM_CACTVS_TPSA>
70.6

> <PUBCHEM_MONOISOTOPIC_WEIGHT>
457.1680809

> <PUBCHEM_TOTAL_CHARGE>
0

> <PUBCHEM_HEAVY_ATOM_COUNT>
32

> <PUBCHEM_ATOM_DEF_STEREO_COUNT>
1

> <PUBCHEM_ATOM_UDEF_STEREO_COUNT>
0

> <PUBCHEM_BOND_DEF_STEREO_COUNT>
0

> <PUBCHEM_BOND_UDEF_STEREO_COUNT>
0

> <PUBCHEM_ISOTOPIC_ATOM_COUNT>
0

> <PUBCHEM_COMPONENT_COUNT>
1

> <PUBCHEM_CACTVS_TAUTO_COUNT>
-1

> <PUBCHEM_COORDINATE_TYPE>
1
5
255

> <PUBCHEM_BONDANNOTATIONS>
10  15  5
16  17  8
16  18  8
17  22  8
18  19  8
19  23  8
19  24  8
22  23  8
27  28  8
27  29  8
28  30  8
29  31  8
30  32  8
31  32  8
7  23  8
7  26  8
9  24  8
9  26  8

$$$$
