25164677
  -OEChem-03202500262D

 30 32  0     0  0  0  0  0  0999 V2000
    3.9771   -0.7767    0.0000 O   0  0  0  0  0  0  0  0  0  0  0  0
    8.4350   -2.1747    0.0000 N   0  0  0  0  0  0  0  0  0  0  0  0
    3.3080   -0.0336    0.0000 N   0  0  0  0  0  0  0  0  0  0  0  0
    9.0186   -1.3700    0.0000 N   0  0  0  0  0  0  0  0  0  0  0  0
    3.4013    1.7460    0.0000 C   0  0  0  0  0  0  0  0  0  0  0  0
    5.7567   -0.8700    0.0000 C   0  0  0  0  0  0  0  0  0  0  0  0
    3.8080    0.8324    0.0000 C   0  0  0  0  0  0  0  0  0  0  0  0
    4.8907   -0.3700    0.0000 C   0  0  0  0  0  0  0  0  0  0  0  0
    2.4067    1.8505    0.0000 C   0  0  0  0  0  0  0  0  0  0  0  0
    7.4888   -0.8700    0.0000 C   0  0  0  0  0  0  0  0  0  0  0  0
    7.4888   -1.8700    0.0000 C   0  0  0  0  0  0  0  0  0  0  0  0
    4.7861    0.6245    0.0000 C   0  0  0  0  0  0  0  0  0  0  0  0
    6.6227   -0.3700    0.0000 C   0  0  0  0  0  0  0  0  0  0  0  0
    5.7567   -1.8700    0.0000 C   0  0  0  0  0  0  0  0  0  0  0  0
    6.6227   -2.3700    0.0000 C   0  0  0  0  0  0  0  0  0  0  0  0
    2.0000    2.7640    0.0000 C   0  0  0  0  0  0  0  0  0  0  0  0
    8.4350   -0.5653    0.0000 C   0  0  0  0  0  0  0  0  0  0  0  0
    4.0028    1.8960    0.0000 H   0  0  0  0  0  0  0  0  0  0  0  0
    3.3580    2.3645    0.0000 H   0  0  0  0  0  0  0  0  0  0  0  0
    1.8052    1.7005    0.0000 H   0  0  0  0  0  0  0  0  0  0  0  0
    2.4500    1.2320    0.0000 H   0  0  0  0  0  0  0  0  0  0  0  0
    5.2469    1.0394    0.0000 H   0  0  0  0  0  0  0  0  0  0  0  0
    6.6227    0.2500    0.0000 H   0  0  0  0  0  0  0  0  0  0  0  0
    5.2198   -2.1800    0.0000 H   0  0  0  0  0  0  0  0  0  0  0  0
    6.6227   -2.9900    0.0000 H   0  0  0  0  0  0  0  0  0  0  0  0
    2.5664    3.0162    0.0000 H   0  0  0  0  0  0  0  0  0  0  0  0
    1.7478    3.3304    0.0000 H   0  0  0  0  0  0  0  0  0  0  0  0
    1.4336    2.5119    0.0000 H   0  0  0  0  0  0  0  0  0  0  0  0
    8.6276    0.0241    0.0000 H   0  0  0  0  0  0  0  0  0  0  0  0
    8.6276   -2.7640    0.0000 H   0  0  0  0  0  0  0  0  0  0  0  0
  1  3  1  0  0  0  0
  1  8  1  0  0  0  0
  2  4  1  0  0  0  0
  2 11  1  0  0  0  0
  2 30  1  0  0  0  0
  3  7  2  0  0  0  0
  4 17  2  0  0  0  0
  5  7  1  0  0  0  0
  5  9  1  0  0  0  0
  5 18  1  0  0  0  0
  5 19  1  0  0  0  0
  6  8  1  0  0  0  0
  6 13  2  0  0  0  0
  6 14  1  0  0  0  0
  7 12  1  0  0  0  0
  8 12  2  0  0  0  0
  9 16  1  0  0  0  0
  9 20  1  0  0  0  0
  9 21  1  0  0  0  0
 10 11  2  0  0  0  0
 10 13  1  0  0  0  0
 10 17  1  0  0  0  0
 11 15  1  0  0  0  0
 12 22  1  0  0  0  0
 13 23  1  0  0  0  0
 14 15  2  0  0  0  0
 14 24  1  0  0  0  0
 15 25  1  0  0  0  0
 16 26  1  0  0  0  0
 16 27  1  0  0  0  0
 16 28  1  0  0  0  0
 17 29  1  0  0  0  0
M  END
> <PUBCHEM_COMPOUND_CID>
25164677

> <PUBCHEM_COMPOUND_CANONICALIZED>
1

> <PUBCHEM_CACTVS_COMPLEXITY>
261

> <PUBCHEM_CACTVS_HBOND_ACCEPTOR>
3

> <PUBCHEM_CACTVS_HBOND_DONOR>
1

> <PUBCHEM_CACTVS_ROTATABLE_BOND>
3

> <PUBCHEM_CACTVS_SUBSKEYS>
AAADccBzIAAAAAAAAAAAAAAAAAAAAWLAAAAwAAAAAAAAAFgB/AAAHgAcAAAADAzBngQ+xPBzAACrA7R3QgCSBAAkogA4uSE2bNoIJrqA1dOAtYBm2BkIyceY2eGeCAACAAACAAAQAAQAAAQAAAAAAAAAAA==

> <PUBCHEM_IUPAC_OPENEYE_NAME>
5-(1H-indazol-5-yl)-3-propyl-isoxazole

> <PUBCHEM_IUPAC_CAS_NAME>
5-(1H-indazol-5-yl)-3-propylisoxazole

> <PUBCHEM_IUPAC_NAME_MARKUP>
5-(1<I>H</I>-indazol-5-yl)-3-propyl-1,2-oxazole

> <PUBCHEM_IUPAC_NAME>
5-(1H-indazol-5-yl)-3-propyl-1,2-oxazole

> <PUBCHEM_IUPAC_SYSTEMATIC_NAME>
5-(1H-indazol-5-yl)-3-propyl-1,2-oxazole

> <PUBCHEM_IUPAC_TRADITIONAL_NAME>
5-(1H-indazol-5-yl)-3-propyl-isoxazole

> <PUBCHEM_IUPAC_INCHI>
InChI=1S/C13H13N3O/c1-2-3-11-7-13(17-16-11)9-4-5-12-10(6-9)8-14-15-12/h4-8H,2-3H2,1H3,(H,14,15)

> <PUBCHEM_IUPAC_INCHIKEY>
OHLKBSAOSZPTFS-UHFFFAOYSA-N

> <PUBCHEM_XLOGP3_AA>
2.9

> <PUBCHEM_EXACT_MASS>
227.105862047

> <PUBCHEM_MOLECULAR_FORMULA>
C13H13N3O

> <PUBCHEM_MOLECULAR_WEIGHT>
227.26

> <PUBCHEM_SMILES>
CCCC1=NOC(=C1)C2=CC3=C(C=C2)NN=C3

> <PUBCHEM_OPENEYE_CAN_SMILES>
CCCC1=NOC(=C1)C2=CC3=C(C=C2)NN=C3

> <PUBCHEM_OPENEYE_ISO_SMILES>
CCCC1=NOC(=C1)C2=CC3=C(C=C2)NN=C3

> <PUBCHEM_CACTVS_TPSA>
54.7

> <PUBCHEM_MONOISOTOPIC_WEIGHT>
227.105862047

> <PUBCHEM_TOTAL_CHARGE>
0

> <PUBCHEM_HEAVY_ATOM_COUNT>
17

> <PUBCHEM_ATOM_DEF_STEREO_COUNT>
0

> <PUBCHEM_ATOM_UDEF_STEREO_COUNT>
0

> <PUBCHEM_BOND_DEF_STEREO_COUNT>
0

> <PUBCHEM_BOND_UDEF_STEREO_COUNT>
0

> <PUBCHEM_ISOTOPIC_ATOM_COUNT>
0

> <PUBCHEM_COMPONENT_COUNT>
1

> <PUBCHEM_CACTVS_TAUTO_COUNT>
-1

> <PUBCHEM_COORDINATE_TYPE>
1
5
255

> <PUBCHEM_BONDANNOTATIONS>
1  3  8
1  8  8
10  11  8
10  13  8
10  17  8
11  15  8
14  15  8
2  11  8
2  4  8
3  7  8
4  17  8
6  13  8
6  14  8
7  12  8
8  12  8

$$$$
