2727417
  -OEChem-03202506252D

 35 38  0     0  0  0  0  0  0999 V2000
    8.9636   -3.2787    0.0000 F   0  0  0  0  0  0  0  0  0  0  0  0
    9.6035   -2.0175    0.0000 F   0  0  0  0  0  0  0  0  0  0  0  0
    7.7024   -2.6388    0.0000 F   0  0  0  0  0  0  0  0  0  0  0  0
    3.8660    1.2787    0.0000 N   0  0  0  0  0  0  0  0  0  0  0  0
    6.4641    1.7787    0.0000 N   0  0  0  0  0  0  0  0  0  0  0  0
    5.5981    1.2787    0.0000 N   0  0  0  0  0  0  0  0  0  0  0  0
    7.4103    3.0834    0.0000 N   0  0  0  0  0  0  0  0  0  0  0  0
    7.9939    2.2787    0.0000 N   0  0  0  0  0  0  0  0  0  0  0  0
    3.0000    1.7787    0.0000 C   0  0  0  0  0  0  0  0  0  0  0  0
    2.5000    2.6447    0.0000 C   0  0  0  0  0  0  0  0  0  0  0  0
    2.0000    1.7787    0.0000 C   0  0  0  0  0  0  0  0  0  0  0  0
    4.7320    1.7787    0.0000 C   0  0  0  0  0  0  0  0  0  0  0  0
    4.7320    2.7787    0.0000 C   0  0  0  0  0  0  0  0  0  0  0  0
    6.4641    2.7787    0.0000 C   0  0  0  0  0  0  0  0  0  0  0  0
    7.4103    1.4739    0.0000 C   0  0  0  0  0  0  0  0  0  0  0  0
    5.5981    3.2787    0.0000 C   0  0  0  0  0  0  0  0  0  0  0  0
    7.7210    0.5234    0.0000 C   0  0  0  0  0  0  0  0  0  0  0  0
    7.0531   -0.2209    0.0000 C   0  0  0  0  0  0  0  0  0  0  0  0
    8.6995    0.3172    0.0000 C   0  0  0  0  0  0  0  0  0  0  0  0
    8.3423   -1.3776    0.0000 C   0  0  0  0  0  0  0  0  0  0  0  0
    7.3638   -1.1714    0.0000 C   0  0  0  0  0  0  0  0  0  0  0  0
    9.0102   -0.6333    0.0000 C   0  0  0  0  0  0  0  0  0  0  0  0
    8.6530   -2.3282    0.0000 C   0  0  0  0  0  0  0  0  0  0  0  0
    2.8395    1.1798    0.0000 H   0  0  0  0  0  0  0  0  0  0  0  0
    2.9750    3.0432    0.0000 H   0  0  0  0  0  0  0  0  0  0  0  0
    2.0250    3.0432    0.0000 H   0  0  0  0  0  0  0  0  0  0  0  0
    1.4174    1.9907    0.0000 H   0  0  0  0  0  0  0  0  0  0  0  0
    1.8923    1.1681    0.0000 H   0  0  0  0  0  0  0  0  0  0  0  0
    3.8660    0.6587    0.0000 H   0  0  0  0  0  0  0  0  0  0  0  0
    4.1951    3.0887    0.0000 H   0  0  0  0  0  0  0  0  0  0  0  0
    5.5981    3.8987    0.0000 H   0  0  0  0  0  0  0  0  0  0  0  0
    6.4465   -0.0930    0.0000 H   0  0  0  0  0  0  0  0  0  0  0  0
    9.1136    0.7787    0.0000 H   0  0  0  0  0  0  0  0  0  0  0  0
    6.9497   -1.6329    0.0000 H   0  0  0  0  0  0  0  0  0  0  0  0
    9.6168   -0.7612    0.0000 H   0  0  0  0  0  0  0  0  0  0  0  0
  1 23  1  0  0  0  0
  2 23  1  0  0  0  0
  3 23  1  0  0  0  0
  4  9  1  0  0  0  0
  4 12  1  0  0  0  0
  4 29  1  0  0  0  0
  5  6  1  0  0  0  0
  5 14  1  0  0  0  0
  5 15  1  0  0  0  0
  6 12  2  0  0  0  0
  7  8  1  0  0  0  0
  7 14  2  0  0  0  0
  8 15  2  0  0  0  0
  9 10  1  0  0  0  0
  9 11  1  0  0  0  0
  9 24  1  0  0  0  0
 10 11  1  0  0  0  0
 10 25  1  0  0  0  0
 10 26  1  0  0  0  0
 11 27  1  0  0  0  0
 11 28  1  0  0  0  0
 12 13  1  0  0  0  0
 13 16  2  0  0  0  0
 13 30  1  0  0  0  0
 14 16  1  0  0  0  0
 15 17  1  0  0  0  0
 16 31  1  0  0  0  0
 17 18  2  0  0  0  0
 17 19  1  0  0  0  0
 18 21  1  0  0  0  0
 18 32  1  0  0  0  0
 19 22  2  0  0  0  0
 19 33  1  0  0  0  0
 20 21  2  0  0  0  0
 20 22  1  0  0  0  0
 20 23  1  0  0  0  0
 21 34  1  0  0  0  0
 22 35  1  0  0  0  0
M  END
> <PUBCHEM_COMPOUND_CID>
2727417

> <PUBCHEM_COMPOUND_CANONICALIZED>
1

> <PUBCHEM_CACTVS_COMPLEXITY>
420

> <PUBCHEM_CACTVS_HBOND_ACCEPTOR>
7

> <PUBCHEM_CACTVS_HBOND_DONOR>
1

> <PUBCHEM_CACTVS_ROTATABLE_BOND>
3

> <PUBCHEM_CACTVS_SUBSKEYS>
AAADccBzgYAAAAAAAAAAAAAAGAAAAWAAAAA8QAAAAAAAAFgB8AAAHQAYAAAADCjBGxQxsJ7IEACiAiJiZACShCshAqAdmKA4ZJiIKKLAmZGEoAhwmALIyCcQgAAOQAAAAAAAAACAAAAAAAAAAAAAAAAAAA==

> <PUBCHEM_IUPAC_OPENEYE_NAME>
N-cyclopropyl-3-[4-(trifluoromethyl)phenyl]-[1,2,4]triazolo[4,3-b]pyridazin-6-amine

> <PUBCHEM_IUPAC_CAS_NAME>
N-cyclopropyl-3-[4-(trifluoromethyl)phenyl]-[1,2,4]triazolo[4,3-b]pyridazin-6-amine

> <PUBCHEM_IUPAC_NAME_MARKUP>
<I>N</I>-cyclopropyl-3-[4-(trifluoromethyl)phenyl]-[1,2,4]triazolo[4,3-b]pyridazin-6-amine

> <PUBCHEM_IUPAC_NAME>
N-cyclopropyl-3-[4-(trifluoromethyl)phenyl]-[1,2,4]triazolo[4,3-b]pyridazin-6-amine

> <PUBCHEM_IUPAC_SYSTEMATIC_NAME>
N-cyclopropyl-3-[4-(trifluoromethyl)phenyl]-[1,2,4]triazolo[4,3-b]pyridazin-6-amine

> <PUBCHEM_IUPAC_TRADITIONAL_NAME>
cyclopropyl-[3-[4-(trifluoromethyl)phenyl]-[1,2,4]triazolo[4,3-b]pyridazin-6-yl]amine

> <PUBCHEM_IUPAC_INCHI>
InChI=1S/C15H12F3N5/c16-15(17,18)10-3-1-9(2-4-10)14-21-20-13-8-7-12(22-23(13)14)19-11-5-6-11/h1-4,7-8,11H,5-6H2,(H,19,22)

> <PUBCHEM_IUPAC_INCHIKEY>
IRFDEDLBWHFGGS-UHFFFAOYSA-N

> <PUBCHEM_XLOGP3_AA>
3.2

> <PUBCHEM_EXACT_MASS>
319.10447989

> <PUBCHEM_MOLECULAR_FORMULA>
C15H12F3N5

> <PUBCHEM_MOLECULAR_WEIGHT>
319.28

> <PUBCHEM_SMILES>
C1CC1NC2=NN3C(=NN=C3C4=CC=C(C=C4)C(F)(F)F)C=C2

> <PUBCHEM_OPENEYE_CAN_SMILES>
C1CC1NC2=NN3C(=NN=C3C4=CC=C(C=C4)C(F)(F)F)C=C2

> <PUBCHEM_OPENEYE_ISO_SMILES>
C1CC1NC2=NN3C(=NN=C3C4=CC=C(C=C4)C(F)(F)F)C=C2

> <PUBCHEM_CACTVS_TPSA>
55.1

> <PUBCHEM_MONOISOTOPIC_WEIGHT>
319.10447989

> <PUBCHEM_TOTAL_CHARGE>
0

> <PUBCHEM_HEAVY_ATOM_COUNT>
23

> <PUBCHEM_ATOM_DEF_STEREO_COUNT>
0

> <PUBCHEM_ATOM_UDEF_STEREO_COUNT>
0

> <PUBCHEM_BOND_DEF_STEREO_COUNT>
0

> <PUBCHEM_BOND_UDEF_STEREO_COUNT>
0

> <PUBCHEM_ISOTOPIC_ATOM_COUNT>
0

> <PUBCHEM_COMPONENT_COUNT>
1

> <PUBCHEM_CACTVS_TAUTO_COUNT>
-1

> <PUBCHEM_COORDINATE_TYPE>
1
5
255

> <PUBCHEM_BONDANNOTATIONS>
12  13  8
13  16  8
14  16  8
17  18  8
17  19  8
18  21  8
19  22  8
20  21  8
20  22  8
5  14  8
5  15  8
5  6  8
6  12  8
7  14  8
7  8  8
8  15  8

$$$$
