45139991
  -OEChem-03202507102D

 57 61  0     0  0  0  0  0  0999 V2000
   10.7179    2.0700    0.0000 O   0  0  0  0  0  0  0  0  0  0  0  0
    4.0604   -5.5154    0.0000 O   0  0  0  0  0  0  0  0  0  0  0  0
    8.9859    2.0634    0.0000 N   0  0  0  0  0  0  0  0  0  0  0  0
    6.3936    0.5534    0.0000 N   0  0  0  0  0  0  0  0  0  0  0  0
    5.4994   -0.9744    0.0000 N   0  0  0  0  0  0  0  0  0  0  0  0
    3.7032   -2.2112    0.0000 N   0  0  0  0  0  0  0  0  0  0  0  0
    7.2995   -0.9674    0.0000 N   0  0  0  0  0  0  0  0  0  0  0  0
    3.1196   -3.0159    0.0000 N   0  0  0  0  0  0  0  0  0  0  0  0
    2.4141   -4.9774    0.0000 N   0  0  0  0  0  0  0  0  0  0  0  0
    7.2577    1.0567    0.0000 C   0  0  0  0  0  0  0  0  0  0  0  0
    7.2538    2.0567    0.0000 C   0  0  0  0  0  0  0  0  0  0  0  0
    8.1256    0.5600    0.0000 C   0  0  0  0  0  0  0  0  0  0  0  0
    8.1179    2.5600    0.0000 C   0  0  0  0  0  0  0  0  0  0  0  0
    8.9897    1.0634    0.0000 C   0  0  0  0  0  0  0  0  0  0  0  0
    5.5155   -4.0159    0.0000 C   0  0  0  0  0  0  0  0  0  0  0  0
    6.3815   -3.5159    0.0000 C   0  0  0  0  0  0  0  0  0  0  0  0
    4.6494   -2.5159    0.0000 C   0  0  0  0  0  0  0  0  0  0  0  0
    6.3974   -0.4466    0.0000 C   0  0  0  0  0  0  0  0  0  0  0  0
    4.6494   -3.5159    0.0000 C   0  0  0  0  0  0  0  0  0  0  0  0
    5.5155   -2.0159    0.0000 C   0  0  0  0  0  0  0  0  0  0  0  0
    6.3815   -2.5159    0.0000 C   0  0  0  0  0  0  0  0  0  0  0  0
    9.8500    2.5667    0.0000 C   0  0  0  0  0  0  0  0  0  0  0  0
    3.7032   -3.8206    0.0000 C   0  0  0  0  0  0  0  0  0  0  0  0
    7.2915   -2.0090    0.0000 C   0  0  0  0  0  0  0  0  0  0  0  0
    9.8461    3.5667    0.0000 C   0  0  0  0  0  0  0  0  0  0  0  0
    3.3926   -1.2606    0.0000 C   0  0  0  0  0  0  0  0  0  0  0  0
    3.3926   -4.7711    0.0000 C   0  0  0  0  0  0  0  0  0  0  0  0
    8.9782    4.0634    0.0000 C   0  0  0  0  0  0  0  0  0  0  0  0
   10.7102    4.0700    0.0000 C   0  0  0  0  0  0  0  0  0  0  0  0
    8.9743    5.0634    0.0000 C   0  0  0  0  0  0  0  0  0  0  0  0
   10.7063    5.0700    0.0000 C   0  0  0  0  0  0  0  0  0  0  0  0
    9.8384    5.5667    0.0000 C   0  0  0  0  0  0  0  0  0  0  0  0
    7.2601    0.4367    0.0000 H   0  0  0  0  0  0  0  0  0  0  0  0
    7.0395    2.6385    0.0000 H   0  0  0  0  0  0  0  0  0  0  0  0
    6.6437    1.9467    0.0000 H   0  0  0  0  0  0  0  0  0  0  0  0
    7.7289    0.0836    0.0000 H   0  0  0  0  0  0  0  0  0  0  0  0
    8.5260    0.0866    0.0000 H   0  0  0  0  0  0  0  0  0  0  0  0
    8.5146    3.0365    0.0000 H   0  0  0  0  0  0  0  0  0  0  0  0
    7.7176    3.0334    0.0000 H   0  0  0  0  0  0  0  0  0  0  0  0
    9.2040    0.4816    0.0000 H   0  0  0  0  0  0  0  0  0  0  0  0
    9.5999    1.1734    0.0000 H   0  0  0  0  0  0  0  0  0  0  0  0
    5.8555    0.8613    0.0000 H   0  0  0  0  0  0  0  0  0  0  0  0
    5.1170   -4.4908    0.0000 H   0  0  0  0  0  0  0  0  0  0  0  0
    5.9140   -4.4908    0.0000 H   0  0  0  0  0  0  0  0  0  0  0  0
    6.5936   -4.0985    0.0000 H   0  0  0  0  0  0  0  0  0  0  0  0
    6.9921   -3.4082    0.0000 H   0  0  0  0  0  0  0  0  0  0  0  0
    7.8248   -2.3252    0.0000 H   0  0  0  0  0  0  0  0  0  0  0  0
    3.9819   -1.0680    0.0000 H   0  0  0  0  0  0  0  0  0  0  0  0
    3.2000   -0.6713    0.0000 H   0  0  0  0  0  0  0  0  0  0  0  0
    2.8032   -1.4532    0.0000 H   0  0  0  0  0  0  0  0  0  0  0  0
    8.4424    3.7513    0.0000 H   0  0  0  0  0  0  0  0  0  0  0  0
   11.2483    3.7621    0.0000 H   0  0  0  0  0  0  0  0  0  0  0  0
    8.4362    5.3713    0.0000 H   0  0  0  0  0  0  0  0  0  0  0  0
   11.2421    5.3821    0.0000 H   0  0  0  0  0  0  0  0  0  0  0  0
    2.2214   -5.5667    0.0000 H   0  0  0  0  0  0  0  0  0  0  0  0
    2.0000   -4.5159    0.0000 H   0  0  0  0  0  0  0  0  0  0  0  0
    9.8360    6.1867    0.0000 H   0  0  0  0  0  0  0  0  0  0  0  0
  1 22  2  0  0  0  0
  2 27  2  0  0  0  0
  3 13  1  0  0  0  0
  3 14  1  0  0  0  0
  3 22  1  0  0  0  0
  4 10  1  0  0  0  0
  4 18  1  0  0  0  0
  4 42  1  0  0  0  0
  5 18  1  0  0  0  0
  5 20  2  0  0  0  0
  6  8  1  0  0  0  0
  6 17  1  0  0  0  0
  6 26  1  0  0  0  0
  7 18  2  0  0  0  0
  7 24  1  0  0  0  0
  8 23  2  0  0  0  0
  9 27  1  0  0  0  0
  9 55  1  0  0  0  0
  9 56  1  0  0  0  0
 10 11  1  0  0  0  0
 10 12  1  0  0  0  0
 10 33  1  0  0  0  0
 11 13  1  0  0  0  0
 11 34  1  0  0  0  0
 11 35  1  0  0  0  0
 12 14  1  0  0  0  0
 12 36  1  0  0  0  0
 12 37  1  0  0  0  0
 13 38  1  0  0  0  0
 13 39  1  0  0  0  0
 14 40  1  0  0  0  0
 14 41  1  0  0  0  0
 15 16  1  0  0  0  0
 15 19  1  0  0  0  0
 15 43  1  0  0  0  0
 15 44  1  0  0  0  0
 16 21  1  0  0  0  0
 16 45  1  0  0  0  0
 16 46  1  0  0  0  0
 17 19  2  0  0  0  0
 17 20  1  0  0  0  0
 19 23  1  0  0  0  0
 20 21  1  0  0  0  0
 21 24  2  0  0  0  0
 22 25  1  0  0  0  0
 23 27  1  0  0  0  0
 24 47  1  0  0  0  0
 25 28  2  0  0  0  0
 25 29  1  0  0  0  0
 26 48  1  0  0  0  0
 26 49  1  0  0  0  0
 26 50  1  0  0  0  0
 28 30  1  0  0  0  0
 28 51  1  0  0  0  0
 29 31  2  0  0  0  0
 29 52  1  0  0  0  0
 30 32  2  0  0  0  0
 30 53  1  0  0  0  0
 31 32  1  0  0  0  0
 31 54  1  0  0  0  0
 32 57  1  0  0  0  0
M  END
> <PUBCHEM_COMPOUND_CID>
45139991

> <PUBCHEM_COMPOUND_CANONICALIZED>
1

> <PUBCHEM_CACTVS_COMPLEXITY>
692

> <PUBCHEM_CACTVS_HBOND_ACCEPTOR>
6

> <PUBCHEM_CACTVS_HBOND_DONOR>
2

> <PUBCHEM_CACTVS_ROTATABLE_BOND>
4

> <PUBCHEM_CACTVS_SUBSKEYS>
AAADceB7sAAAAAAAAAAAAAAAAAAAAWAAAAA8eIEAAAAAAFix8AAAHgAYAAAADCjBngQ/kJfIEACqAzV3dACShCk3gKAZ2KGoRNiIaLLA3dGUpQhongLIyaccicCeAAAAAAAAAACAAACAAAQAQAAAAAAAAA==

> <PUBCHEM_IUPAC_OPENEYE_NAME>
8-[(1-benzoyl-4-piperidyl)amino]-1-methyl-4,5-dihydropyrazolo[4,3-h]quinazoline-3-carboxamide

> <PUBCHEM_IUPAC_CAS_NAME>
8-[(1-benzoyl-4-piperidinyl)amino]-1-methyl-4,5-dihydropyrazolo[4,3-h]quinazoline-3-carboxamide

> <PUBCHEM_IUPAC_NAME_MARKUP>
8-[(1-benzoylpiperidin-4-yl)amino]-1-methyl-4,5-dihydropyrazolo[4,3-h]quinazoline-3-carboxamide

> <PUBCHEM_IUPAC_NAME>
8-[(1-benzoylpiperidin-4-yl)amino]-1-methyl-4,5-dihydropyrazolo[4,3-h]quinazoline-3-carboxamide

> <PUBCHEM_IUPAC_SYSTEMATIC_NAME>
1-methyl-8-[[1-(phenylcarbonyl)piperidin-4-yl]amino]-4,5-dihydropyrazolo[4,3-h]quinazoline-3-carboxamide

> <PUBCHEM_IUPAC_TRADITIONAL_NAME>
8-[(1-benzoyl-4-piperidyl)amino]-1-methyl-4,5-dihydropyrazolo[4,3-h]quinazoline-3-carboxamide

> <PUBCHEM_IUPAC_INCHI>
InChI=1S/C23H25N7O2/c1-29-20-17(19(28-29)21(24)31)8-7-15-13-25-23(27-18(15)20)26-16-9-11-30(12-10-16)22(32)14-5-3-2-4-6-14/h2-6,13,16H,7-12H2,1H3,(H2,24,31)(H,25,26,27)

> <PUBCHEM_IUPAC_INCHIKEY>
DIASEXMEBNQQHZ-UHFFFAOYSA-N

> <PUBCHEM_XLOGP3_AA>
1.7

> <PUBCHEM_EXACT_MASS>
431.20697307

> <PUBCHEM_MOLECULAR_FORMULA>
C23H25N7O2

> <PUBCHEM_MOLECULAR_WEIGHT>
431.5

> <PUBCHEM_SMILES>
CN1C2=C(CCC3=CN=C(N=C32)NC4CCN(CC4)C(=O)C5=CC=CC=C5)C(=N1)C(=O)N

> <PUBCHEM_OPENEYE_CAN_SMILES>
CN1C2=C(CCC3=CN=C(N=C32)NC4CCN(CC4)C(=O)C5=CC=CC=C5)C(=N1)C(=O)N

> <PUBCHEM_OPENEYE_ISO_SMILES>
CN1C2=C(CCC3=CN=C(N=C32)NC4CCN(CC4)C(=O)C5=CC=CC=C5)C(=N1)C(=O)N

> <PUBCHEM_CACTVS_TPSA>
119

> <PUBCHEM_MONOISOTOPIC_WEIGHT>
431.20697307

> <PUBCHEM_TOTAL_CHARGE>
0

> <PUBCHEM_HEAVY_ATOM_COUNT>
32

> <PUBCHEM_ATOM_DEF_STEREO_COUNT>
0

> <PUBCHEM_ATOM_UDEF_STEREO_COUNT>
0

> <PUBCHEM_BOND_DEF_STEREO_COUNT>
0

> <PUBCHEM_BOND_UDEF_STEREO_COUNT>
0

> <PUBCHEM_ISOTOPIC_ATOM_COUNT>
0

> <PUBCHEM_COMPONENT_COUNT>
1

> <PUBCHEM_CACTVS_TAUTO_COUNT>
-1

> <PUBCHEM_COORDINATE_TYPE>
1
5
255

> <PUBCHEM_BONDANNOTATIONS>
17  19  8
19  23  8
20  21  8
21  24  8
25  28  8
25  29  8
28  30  8
29  31  8
30  32  8
31  32  8
5  18  8
5  20  8
6  17  8
6  8  8
7  18  8
7  24  8
8  23  8

$$$$
