24822704
  -OEChem-03192523202D

 50 54  0     0  0  0  0  0  0999 V2000
    3.3660   -1.1340    0.0000 F   0  0  0  0  0  0  0  0  0  0  0  0
    2.0000   -1.5000    0.0000 F   0  0  0  0  0  0  0  0  0  0  0  0
    2.3660   -2.8660    0.0000 F   0  0  0  0  0  0  0  0  0  0  0  0
    7.1962   -2.5000    0.0000 O   0  0  0  0  0  0  0  0  0  0  0  0
    8.9282    2.5000    0.0000 N   0  0  0  0  0  0  0  0  0  0  0  0
    9.8744    2.1953    0.0000 N   0  0  0  0  0  0  0  0  0  0  0  0
    8.0622    4.0000    0.0000 N   0  0  0  0  0  0  0  0  0  0  0  0
    6.3301   -1.0000    0.0000 N   0  0  0  0  0  0  0  0  0  0  0  0
   13.4580    3.0000    0.0000 N   0  0  0  0  0  0  0  0  0  0  0  0
    8.0622    2.0000    0.0000 C   0  0  0  0  0  0  0  0  0  0  0  0
    8.0622    1.0000    0.0000 C   0  0  0  0  0  0  0  0  0  0  0  0
    8.9282    3.5000    0.0000 C   0  0  0  0  0  0  0  0  0  0  0  0
   10.4580    3.0000    0.0000 C   0  0  0  0  0  0  0  0  0  0  0  0
    9.8744    3.8047    0.0000 C   0  0  0  0  0  0  0  0  0  0  0  0
    7.1962    0.5000    0.0000 C   0  0  0  0  0  0  0  0  0  0  0  0
    7.1962    2.5000    0.0000 C   0  0  0  0  0  0  0  0  0  0  0  0
    7.1962   -0.5000    0.0000 C   0  0  0  0  0  0  0  0  0  0  0  0
    8.9282    0.5000    0.0000 C   0  0  0  0  0  0  0  0  0  0  0  0
   11.4580    3.0000    0.0000 C   0  0  0  0  0  0  0  0  0  0  0  0
    7.1962    3.5000    0.0000 C   0  0  0  0  0  0  0  0  0  0  0  0
    8.0622   -1.0000    0.0000 C   0  0  0  0  0  0  0  0  0  0  0  0
    8.9282   -0.5000    0.0000 C   0  0  0  0  0  0  0  0  0  0  0  0
    5.4641   -2.5000    0.0000 C   0  0  0  0  0  0  0  0  0  0  0  0
    6.3301   -2.0000    0.0000 C   0  0  0  0  0  0  0  0  0  0  0  0
   11.9580    2.1340    0.0000 C   0  0  0  0  0  0  0  0  0  0  0  0
   11.9580    3.8660    0.0000 C   0  0  0  0  0  0  0  0  0  0  0  0
    4.5981   -2.0000    0.0000 C   0  0  0  0  0  0  0  0  0  0  0  0
    3.7320   -2.5000    0.0000 C   0  0  0  0  0  0  0  0  0  0  0  0
    5.4641   -3.5000    0.0000 C   0  0  0  0  0  0  0  0  0  0  0  0
    3.7320   -3.5000    0.0000 C   0  0  0  0  0  0  0  0  0  0  0  0
    4.5981   -4.0000    0.0000 C   0  0  0  0  0  0  0  0  0  0  0  0
    2.8660   -2.0000    0.0000 C   0  0  0  0  0  0  0  0  0  0  0  0
   12.9580    2.1340    0.0000 C   0  0  0  0  0  0  0  0  0  0  0  0
   12.9580    3.8660    0.0000 C   0  0  0  0  0  0  0  0  0  0  0  0
   10.0670    4.3940    0.0000 H   0  0  0  0  0  0  0  0  0  0  0  0
    6.6592    0.8100    0.0000 H   0  0  0  0  0  0  0  0  0  0  0  0
    6.6592    2.1900    0.0000 H   0  0  0  0  0  0  0  0  0  0  0  0
    9.4651    0.8100    0.0000 H   0  0  0  0  0  0  0  0  0  0  0  0
    6.6592    3.8100    0.0000 H   0  0  0  0  0  0  0  0  0  0  0  0
    8.0622   -1.6200    0.0000 H   0  0  0  0  0  0  0  0  0  0  0  0
    9.4651   -0.8100    0.0000 H   0  0  0  0  0  0  0  0  0  0  0  0
    5.7932   -0.6900    0.0000 H   0  0  0  0  0  0  0  0  0  0  0  0
   11.6480    1.5970    0.0000 H   0  0  0  0  0  0  0  0  0  0  0  0
   11.6480    4.4030    0.0000 H   0  0  0  0  0  0  0  0  0  0  0  0
    4.5981   -1.3800    0.0000 H   0  0  0  0  0  0  0  0  0  0  0  0
    6.0010   -3.8100    0.0000 H   0  0  0  0  0  0  0  0  0  0  0  0
    3.1951   -3.8100    0.0000 H   0  0  0  0  0  0  0  0  0  0  0  0
    4.5981   -4.6200    0.0000 H   0  0  0  0  0  0  0  0  0  0  0  0
   13.2680    1.5970    0.0000 H   0  0  0  0  0  0  0  0  0  0  0  0
   13.2680    4.4030    0.0000 H   0  0  0  0  0  0  0  0  0  0  0  0
  1 32  1  0  0  0  0
  2 32  1  0  0  0  0
  3 32  1  0  0  0  0
  4 24  2  0  0  0  0
  5  6  1  0  0  0  0
  5 10  1  0  0  0  0
  5 12  1  0  0  0  0
  6 13  2  0  0  0  0
  7 12  1  0  0  0  0
  7 20  2  0  0  0  0
  8 17  1  0  0  0  0
  8 24  1  0  0  0  0
  8 42  1  0  0  0  0
  9 33  2  0  0  0  0
  9 34  1  0  0  0  0
 10 11  1  0  0  0  0
 10 16  2  0  0  0  0
 11 15  2  0  0  0  0
 11 18  1  0  0  0  0
 12 14  2  0  0  0  0
 13 14  1  0  0  0  0
 13 19  1  0  0  0  0
 14 35  1  0  0  0  0
 15 17  1  0  0  0  0
 15 36  1  0  0  0  0
 16 20  1  0  0  0  0
 16 37  1  0  0  0  0
 17 21  2  0  0  0  0
 18 22  2  0  0  0  0
 18 38  1  0  0  0  0
 19 25  2  0  0  0  0
 19 26  1  0  0  0  0
 20 39  1  0  0  0  0
 21 22  1  0  0  0  0
 21 40  1  0  0  0  0
 22 41  1  0  0  0  0
 23 24  1  0  0  0  0
 23 27  2  0  0  0  0
 23 29  1  0  0  0  0
 25 33  1  0  0  0  0
 25 43  1  0  0  0  0
 26 34  2  0  0  0  0
 26 44  1  0  0  0  0
 27 28  1  0  0  0  0
 27 45  1  0  0  0  0
 28 30  2  0  0  0  0
 28 32  1  0  0  0  0
 29 31  2  0  0  0  0
 29 46  1  0  0  0  0
 30 31  1  0  0  0  0
 30 47  1  0  0  0  0
 31 48  1  0  0  0  0
 33 49  1  0  0  0  0
 34 50  1  0  0  0  0
M  END
> <PUBCHEM_COMPOUND_CID>
24822704

> <PUBCHEM_COMPOUND_CANONICALIZED>
1

> <PUBCHEM_CACTVS_COMPLEXITY>
701

> <PUBCHEM_CACTVS_HBOND_ACCEPTOR>
7

> <PUBCHEM_CACTVS_HBOND_DONOR>
1

> <PUBCHEM_CACTVS_ROTATABLE_BOND>
4

> <PUBCHEM_CACTVS_SUBSKEYS>
AAADceB7oYAAAAAAAAAAAAAAAAAAAWAAAAA8eIEAAAAAAFgB/AAAHwAYAAAADAjBnxQ98J7IEACqAzd3dACShCs1AqAd2CE4ZNiIKPLA3dGEpQhonALIyacYiMCOAAACQAAAAAAAAASAAAAAAAAAAAAAAA==

> <PUBCHEM_IUPAC_OPENEYE_NAME>
N-[3-[2-(4-pyridyl)pyrazolo[1,5-a]pyrimidin-7-yl]phenyl]-3-(trifluoromethyl)benzamide

> <PUBCHEM_IUPAC_CAS_NAME>
N-[3-(2-pyridin-4-yl-7-pyrazolo[1,5-a]pyrimidinyl)phenyl]-3-(trifluoromethyl)benzamide

> <PUBCHEM_IUPAC_NAME_MARKUP>
<I>N</I>-[3-(2-pyridin-4-ylpyrazolo[1,5-a]pyrimidin-7-yl)phenyl]-3-(trifluoromethyl)benzamide

> <PUBCHEM_IUPAC_NAME>
N-[3-(2-pyridin-4-ylpyrazolo[1,5-a]pyrimidin-7-yl)phenyl]-3-(trifluoromethyl)benzamide

> <PUBCHEM_IUPAC_SYSTEMATIC_NAME>
N-[3-(2-pyridin-4-ylpyrazolo[1,5-a]pyrimidin-7-yl)phenyl]-3-(trifluoromethyl)benzamide

> <PUBCHEM_IUPAC_TRADITIONAL_NAME>
N-[3-[2-(4-pyridyl)pyrazolo[1,5-a]pyrimidin-7-yl]phenyl]-3-(trifluoromethyl)benzamide

> <PUBCHEM_IUPAC_INCHI>
InChI=1S/C25H16F3N5O/c26-25(27,28)19-5-1-4-18(13-19)24(34)31-20-6-2-3-17(14-20)22-9-12-30-23-15-21(32-33(22)23)16-7-10-29-11-8-16/h1-15H,(H,31,34)

> <PUBCHEM_IUPAC_INCHIKEY>
LCMNWMABPDVIPG-UHFFFAOYSA-N

> <PUBCHEM_XLOGP3_AA>
4.3

> <PUBCHEM_EXACT_MASS>
459.13069464

> <PUBCHEM_MOLECULAR_FORMULA>
C25H16F3N5O

> <PUBCHEM_MOLECULAR_WEIGHT>
459.4

> <PUBCHEM_SMILES>
C1=CC(=CC(=C1)NC(=O)C2=CC(=CC=C2)C(F)(F)F)C3=CC=NC4=CC(=NN34)C5=CC=NC=C5

> <PUBCHEM_OPENEYE_CAN_SMILES>
C1=CC(=CC(=C1)NC(=O)C2=CC(=CC=C2)C(F)(F)F)C3=CC=NC4=CC(=NN34)C5=CC=NC=C5

> <PUBCHEM_OPENEYE_ISO_SMILES>
C1=CC(=CC(=C1)NC(=O)C2=CC(=CC=C2)C(F)(F)F)C3=CC=NC4=CC(=NN34)C5=CC=NC=C5

> <PUBCHEM_CACTVS_TPSA>
72.2

> <PUBCHEM_MONOISOTOPIC_WEIGHT>
459.13069464

> <PUBCHEM_TOTAL_CHARGE>
0

> <PUBCHEM_HEAVY_ATOM_COUNT>
34

> <PUBCHEM_ATOM_DEF_STEREO_COUNT>
0

> <PUBCHEM_ATOM_UDEF_STEREO_COUNT>
0

> <PUBCHEM_BOND_DEF_STEREO_COUNT>
0

> <PUBCHEM_BOND_UDEF_STEREO_COUNT>
0

> <PUBCHEM_ISOTOPIC_ATOM_COUNT>
0

> <PUBCHEM_COMPONENT_COUNT>
1

> <PUBCHEM_CACTVS_TAUTO_COUNT>
-1

> <PUBCHEM_COORDINATE_TYPE>
1
5
255

> <PUBCHEM_BONDANNOTATIONS>
10  16  8
11  15  8
11  18  8
12  14  8
13  14  8
15  17  8
16  20  8
17  21  8
18  22  8
19  25  8
19  26  8
21  22  8
23  27  8
23  29  8
25  33  8
26  34  8
27  28  8
28  30  8
29  31  8
30  31  8
5  10  8
5  12  8
5  6  8
6  13  8
7  12  8
7  20  8
9  33  8
9  34  8

$$$$
