16043304
  -OEChem-03202504462D

 47 49  0     1  0  0  0  0  0999 V2000
    4.8025   -1.0606    0.0000 Cl  0  0  0  0  0  0  0  0  0  0  0  0
    2.0000    0.9756    0.0000 Cl  0  0  0  0  0  0  0  0  0  0  0  0
    9.6308    0.9870    0.0000 S   0  0  0  0  0  0  0  0  0  0  0  0
    7.5604    1.2619    0.0000 O   0  0  0  0  0  0  0  0  0  0  0  0
    7.3794   -0.4606    0.0000 N   0  0  0  0  0  0  0  0  0  0  0  0
    6.2038   -2.0787    0.0000 N   0  0  0  0  0  0  0  0  0  0  0  0
   12.2764    0.5803    0.0000 N   0  0  0  0  0  0  0  0  0  0  0  0
   13.1424    2.0803    0.0000 N   0  0  0  0  0  0  0  0  0  0  0  0
   14.0084    0.5803    0.0000 N   0  0  0  0  0  0  0  0  0  0  0  0
    6.3848   -0.3561    0.0000 C   0  0  1  0  0  0  0  0  0  0  0  0
    5.9781    0.5574    0.0000 C   0  0  0  0  0  0  0  0  0  0  0  0
    5.7970   -1.1651    0.0000 C   0  0  0  0  0  0  0  0  0  0  0  0
    4.9836    0.6620    0.0000 C   0  0  0  0  0  0  0  0  0  0  0  0
    7.9671    0.3484    0.0000 C   0  0  0  0  0  0  0  0  0  0  0  0
    4.3958   -0.1471    0.0000 C   0  0  0  0  0  0  0  0  0  0  0  0
    4.5768    1.5755    0.0000 C   0  0  0  0  0  0  0  0  0  0  0  0
    8.9616    0.2439    0.0000 C   0  0  0  0  0  0  0  0  0  0  0  0
    3.4013   -0.0425    0.0000 C   0  0  0  0  0  0  0  0  0  0  0  0
    3.5823    1.6800    0.0000 C   0  0  0  0  0  0  0  0  0  0  0  0
    9.4616   -0.6222    0.0000 C   0  0  0  0  0  0  0  0  0  0  0  0
    2.9945    0.8710    0.0000 C   0  0  0  0  0  0  0  0  0  0  0  0
   10.5443    0.5803    0.0000 C   0  0  0  0  0  0  0  0  0  0  0  0
   10.4398   -0.4143    0.0000 C   0  0  0  0  0  0  0  0  0  0  0  0
   11.4104    1.0803    0.0000 C   0  0  0  0  0  0  0  0  0  0  0  0
   11.4104    2.0803    0.0000 C   0  0  0  0  0  0  0  0  0  0  0  0
   13.1424    1.0803    0.0000 C   0  0  0  0  0  0  0  0  0  0  0  0
   12.2764    2.5803    0.0000 C   0  0  0  0  0  0  0  0  0  0  0  0
   14.8745    1.0803    0.0000 C   0  0  0  0  0  0  0  0  0  0  0  0
    6.7492    0.1455    0.0000 H   0  0  0  0  0  0  0  0  0  0  0  0
    6.5797    0.7074    0.0000 H   0  0  0  0  0  0  0  0  0  0  0  0
    5.9348    1.1759    0.0000 H   0  0  0  0  0  0  0  0  0  0  0  0
    5.3664   -0.7191    0.0000 H   0  0  0  0  0  0  0  0  0  0  0  0
    5.2830   -1.5118    0.0000 H   0  0  0  0  0  0  0  0  0  0  0  0
    7.6315   -1.0270    0.0000 H   0  0  0  0  0  0  0  0  0  0  0  0
    4.9413    2.0771    0.0000 H   0  0  0  0  0  0  0  0  0  0  0  0
    5.8393   -2.5803    0.0000 H   0  0  0  0  0  0  0  0  0  0  0  0
    6.8204   -2.1435    0.0000 H   0  0  0  0  0  0  0  0  0  0  0  0
    3.0368   -0.5441    0.0000 H   0  0  0  0  0  0  0  0  0  0  0  0
    3.3301    2.2464    0.0000 H   0  0  0  0  0  0  0  0  0  0  0  0
    9.2095   -1.1886    0.0000 H   0  0  0  0  0  0  0  0  0  0  0  0
   10.9006   -0.8291    0.0000 H   0  0  0  0  0  0  0  0  0  0  0  0
   10.8734    2.3903    0.0000 H   0  0  0  0  0  0  0  0  0  0  0  0
   12.2764    3.2003    0.0000 H   0  0  0  0  0  0  0  0  0  0  0  0
   14.0084   -0.0397    0.0000 H   0  0  0  0  0  0  0  0  0  0  0  0
   15.1845    0.5433    0.0000 H   0  0  0  0  0  0  0  0  0  0  0  0
   15.4114    1.3903    0.0000 H   0  0  0  0  0  0  0  0  0  0  0  0
   14.5645    1.6172    0.0000 H   0  0  0  0  0  0  0  0  0  0  0  0
  1 15  1  0  0  0  0
  2 21  1  0  0  0  0
  3 17  1  0  0  0  0
  3 22  1  0  0  0  0
  4 14  2  0  0  0  0
 10  5  1  6  0  0  0
  5 14  1  0  0  0  0
  5 34  1  0  0  0  0
  6 12  1  0  0  0  0
  6 36  1  0  0  0  0
  6 37  1  0  0  0  0
  7 24  2  0  0  0  0
  7 26  1  0  0  0  0
  8 26  2  0  0  0  0
  8 27  1  0  0  0  0
  9 26  1  0  0  0  0
  9 28  1  0  0  0  0
  9 44  1  0  0  0  0
 10 11  1  0  0  0  0
 10 12  1  0  0  0  0
 10 29  1  0  0  0  0
 11 13  1  0  0  0  0
 11 30  1  0  0  0  0
 11 31  1  0  0  0  0
 12 32  1  0  0  0  0
 12 33  1  0  0  0  0
 13 15  2  0  0  0  0
 13 16  1  0  0  0  0
 14 17  1  0  0  0  0
 15 18  1  0  0  0  0
 16 19  2  0  0  0  0
 16 35  1  0  0  0  0
 17 20  2  0  0  0  0
 18 21  2  0  0  0  0
 18 38  1  0  0  0  0
 19 21  1  0  0  0  0
 19 39  1  0  0  0  0
 20 23  1  0  0  0  0
 20 40  1  0  0  0  0
 22 23  2  0  0  0  0
 22 24  1  0  0  0  0
 23 41  1  0  0  0  0
 24 25  1  0  0  0  0
 25 27  2  0  0  0  0
 25 42  1  0  0  0  0
 27 43  1  0  0  0  0
 28 45  1  0  0  0  0
 28 46  1  0  0  0  0
 28 47  1  0  0  0  0
M  END
> <PUBCHEM_COMPOUND_CID>
16043304

> <PUBCHEM_COMPOUND_CANONICALIZED>
1

> <PUBCHEM_CACTVS_COMPLEXITY>
517

> <PUBCHEM_CACTVS_HBOND_ACCEPTOR>
6

> <PUBCHEM_CACTVS_HBOND_DONOR>
3

> <PUBCHEM_CACTVS_ROTATABLE_BOND>
7

> <PUBCHEM_CACTVS_SUBSKEYS>
AAADceB7oABGAAAAAAAAAAAAAAAAASAAAAA8QAAAAAAAAAAB8AAAHgYQAAAADCrB3iQ/kZbIEAisAzV3dACDgKk1D7BJ2Lk4ZtiIaLLh39GUJQholgLoyacYiICOBAAAAACBAAAIAAAAAQIAAAAAAAAAAA==

> <PUBCHEM_IUPAC_OPENEYE_NAME>
N-[(1S)-1-(aminomethyl)-2-(2,4-dichlorophenyl)ethyl]-5-[2-(methylamino)pyrimidin-4-yl]thiophene-2-carboxamide

> <PUBCHEM_IUPAC_CAS_NAME>
N-[(2S)-1-amino-3-(2,4-dichlorophenyl)propan-2-yl]-5-[2-(methylamino)-4-pyrimidinyl]-2-thiophenecarboxamide

> <PUBCHEM_IUPAC_NAME_MARKUP>
<I>N</I>-[(2<I>S</I>)-1-amino-3-(2,4-dichlorophenyl)propan-2-yl]-5-[2-(methylamino)pyrimidin-4-yl]thiophene-2-carboxamide

> <PUBCHEM_IUPAC_NAME>
N-[(2S)-1-amino-3-(2,4-dichlorophenyl)propan-2-yl]-5-[2-(methylamino)pyrimidin-4-yl]thiophene-2-carboxamide

> <PUBCHEM_IUPAC_SYSTEMATIC_NAME>
N-[(2S)-1-azanyl-3-(2,4-dichlorophenyl)propan-2-yl]-5-[2-(methylamino)pyrimidin-4-yl]thiophene-2-carboxamide

> <PUBCHEM_IUPAC_TRADITIONAL_NAME>
N-[(1S)-1-(aminomethyl)-2-(2,4-dichlorophenyl)ethyl]-5-[2-(methylamino)pyrimidin-4-yl]thiophene-2-carboxamide

> <PUBCHEM_IUPAC_INCHI>
InChI=1S/C19H19Cl2N5OS/c1-23-19-24-7-6-15(26-19)16-4-5-17(28-16)18(27)25-13(10-22)8-11-2-3-12(20)9-14(11)21/h2-7,9,13H,8,10,22H2,1H3,(H,25,27)(H,23,24,26)/t13-/m0/s1

> <PUBCHEM_IUPAC_INCHIKEY>
HHOVRZGUSBMKKU-ZDUSSCGKSA-N

> <PUBCHEM_XLOGP3_AA>
3.8

> <PUBCHEM_EXACT_MASS>
435.0687368

> <PUBCHEM_MOLECULAR_FORMULA>
C19H19Cl2N5OS

> <PUBCHEM_MOLECULAR_WEIGHT>
436.4

> <PUBCHEM_SMILES>
CNC1=NC=CC(=N1)C2=CC=C(S2)C(=O)N[C@@H](CC3=C(C=C(C=C3)Cl)Cl)CN

> <PUBCHEM_OPENEYE_CAN_SMILES>
CNC1=NC=CC(=N1)C2=CC=C(S2)C(=O)NC(CC3=C(C=C(C=C3)Cl)Cl)CN

> <PUBCHEM_OPENEYE_ISO_SMILES>
CNC1=NC=CC(=N1)C2=CC=C(S2)C(=O)N[C@@H](CC3=C(C=C(C=C3)Cl)Cl)CN

> <PUBCHEM_CACTVS_TPSA>
121

> <PUBCHEM_MONOISOTOPIC_WEIGHT>
435.0687368

> <PUBCHEM_TOTAL_CHARGE>
0

> <PUBCHEM_HEAVY_ATOM_COUNT>
28

> <PUBCHEM_ATOM_DEF_STEREO_COUNT>
1

> <PUBCHEM_ATOM_UDEF_STEREO_COUNT>
0

> <PUBCHEM_BOND_DEF_STEREO_COUNT>
0

> <PUBCHEM_BOND_UDEF_STEREO_COUNT>
0

> <PUBCHEM_ISOTOPIC_ATOM_COUNT>
0

> <PUBCHEM_COMPONENT_COUNT>
1

> <PUBCHEM_CACTVS_TAUTO_COUNT>
-1

> <PUBCHEM_COORDINATE_TYPE>
1
5
255

> <PUBCHEM_BONDANNOTATIONS>
13  15  8
13  16  8
15  18  8
16  19  8
17  20  8
18  21  8
19  21  8
20  23  8
22  23  8
24  25  8
25  27  8
3  17  8
3  22  8
10  5  6
7  24  8
7  26  8
8  26  8
8  27  8

$$$$
