135421442
  -OEChem-03202506502D

 69 73  0     0  0  0  0  0  0999 V2000
    3.7320   -3.1734    0.0000 S   0  0  0  0  0  0  0  0  0  0  0  0
    9.7260   -3.6734    0.0000 O   0  0  0  0  0  0  0  0  0  0  0  0
    3.2320   -2.3073    0.0000 O   0  0  0  0  0  0  0  0  0  0  0  0
    4.2320   -4.0394    0.0000 O   0  0  0  0  0  0  0  0  0  0  0  0
    8.3600    3.3726    0.0000 N   0  0  0  0  0  0  0  0  0  0  0  0
    8.1424   -4.4781    0.0000 N   0  0  0  0  0  0  0  0  0  0  0  0
    7.7852   -1.1738    0.0000 N   0  0  0  0  0  0  0  0  0  0  0  0
    4.5981   -2.6734    0.0000 N   0  0  0  0  0  0  0  0  0  0  0  0
    8.6707    4.3231    0.0000 C   0  0  0  0  0  0  0  0  0  0  0  0
    7.3815    3.1664    0.0000 C   0  0  0  0  0  0  0  0  0  0  0  0
    8.0028    5.0674    0.0000 C   0  0  0  0  0  0  0  0  0  0  0  0
    6.7136    3.9107    0.0000 C   0  0  0  0  0  0  0  0  0  0  0  0
    7.0243    4.8612    0.0000 C   0  0  0  0  0  0  0  0  0  0  0  0
    9.0278    2.6283    0.0000 C   0  0  0  0  0  0  0  0  0  0  0  0
    8.7172    1.6778    0.0000 C   0  0  0  0  0  0  0  0  0  0  0  0
    9.3850    0.9335    0.0000 C   0  0  0  0  0  0  0  0  0  0  0  0
    7.7387    1.4715    0.0000 C   0  0  0  0  0  0  0  0  0  0  0  0
    7.1962   -3.1734    0.0000 C   0  0  0  0  0  0  0  0  0  0  0  0
    9.0744   -0.0171    0.0000 C   0  0  0  0  0  0  0  0  0  0  0  0
    7.4280    0.5210    0.0000 C   0  0  0  0  0  0  0  0  0  0  0  0
    8.1424   -2.8686    0.0000 C   0  0  0  0  0  0  0  0  0  0  0  0
    8.0958   -0.2233    0.0000 C   0  0  0  0  0  0  0  0  0  0  0  0
    7.1962   -4.1734    0.0000 C   0  0  0  0  0  0  0  0  0  0  0  0
    8.4530   -1.9181    0.0000 C   0  0  0  0  0  0  0  0  0  0  0  0
    8.7260   -3.6734    0.0000 C   0  0  0  0  0  0  0  0  0  0  0  0
    6.3301   -2.6734    0.0000 C   0  0  0  0  0  0  0  0  0  0  0  0
    5.4641   -3.1734    0.0000 C   0  0  0  0  0  0  0  0  0  0  0  0
    6.3301   -4.6734    0.0000 C   0  0  0  0  0  0  0  0  0  0  0  0
    5.4641   -4.1734    0.0000 C   0  0  0  0  0  0  0  0  0  0  0  0
    9.4315   -1.7119    0.0000 C   0  0  0  0  0  0  0  0  0  0  0  0
    2.8660   -3.6734    0.0000 C   0  0  0  0  0  0  0  0  0  0  0  0
   10.0994   -2.4562    0.0000 C   0  0  0  0  0  0  0  0  0  0  0  0
    9.7422   -0.7614    0.0000 C   0  0  0  0  0  0  0  0  0  0  0  0
    2.0000   -3.1734    0.0000 C   0  0  0  0  0  0  0  0  0  0  0  0
   11.0779   -2.2500    0.0000 C   0  0  0  0  0  0  0  0  0  0  0  0
   10.7207   -0.5551    0.0000 C   0  0  0  0  0  0  0  0  0  0  0  0
   11.3886   -1.2994    0.0000 C   0  0  0  0  0  0  0  0  0  0  0  0
    9.2176    4.0311    0.0000 H   0  0  0  0  0  0  0  0  0  0  0  0
    9.0532    4.8110    0.0000 H   0  0  0  0  0  0  0  0  0  0  0  0
    6.8551    2.8387    0.0000 H   0  0  0  0  0  0  0  0  0  0  0  0
    7.6128    2.5911    0.0000 H   0  0  0  0  0  0  0  0  0  0  0  0
    8.5292    5.3950    0.0000 H   0  0  0  0  0  0  0  0  0  0  0  0
    7.7716    5.6427    0.0000 H   0  0  0  0  0  0  0  0  0  0  0  0
    6.1667    4.2027    0.0000 H   0  0  0  0  0  0  0  0  0  0  0  0
    6.3311    3.4228    0.0000 H   0  0  0  0  0  0  0  0  0  0  0  0
    7.0037    5.4808    0.0000 H   0  0  0  0  0  0  0  0  0  0  0  0
    6.4105    4.9485    0.0000 H   0  0  0  0  0  0  0  0  0  0  0  0
    9.5748    2.3363    0.0000 H   0  0  0  0  0  0  0  0  0  0  0  0
    9.4104    3.1162    0.0000 H   0  0  0  0  0  0  0  0  0  0  0  0
    9.9917    1.0613    0.0000 H   0  0  0  0  0  0  0  0  0  0  0  0
    7.3246    1.9330    0.0000 H   0  0  0  0  0  0  0  0  0  0  0  0
    9.4884   -0.4785    0.0000 H   0  0  0  0  0  0  0  0  0  0  0  0
    6.8213    0.3932    0.0000 H   0  0  0  0  0  0  0  0  0  0  0  0
    6.3301   -2.0534    0.0000 H   0  0  0  0  0  0  0  0  0  0  0  0
    8.3350   -5.0674    0.0000 H   0  0  0  0  0  0  0  0  0  0  0  0
    6.3301   -5.2934    0.0000 H   0  0  0  0  0  0  0  0  0  0  0  0
    4.9272   -4.4834    0.0000 H   0  0  0  0  0  0  0  0  0  0  0  0
    4.5981   -2.0534    0.0000 H   0  0  0  0  0  0  0  0  0  0  0  0
    2.4675   -4.1483    0.0000 H   0  0  0  0  0  0  0  0  0  0  0  0
    3.2646   -4.1483    0.0000 H   0  0  0  0  0  0  0  0  0  0  0  0
    9.9068   -3.0455    0.0000 H   0  0  0  0  0  0  0  0  0  0  0  0
    9.3281   -0.2999    0.0000 H   0  0  0  0  0  0  0  0  0  0  0  0
   10.0360   -4.2103    0.0000 H   0  0  0  0  0  0  0  0  0  0  0  0
    2.3100   -2.6364    0.0000 H   0  0  0  0  0  0  0  0  0  0  0  0
    1.4631   -2.8634    0.0000 H   0  0  0  0  0  0  0  0  0  0  0  0
    1.6900   -3.7103    0.0000 H   0  0  0  0  0  0  0  0  0  0  0  0
   11.4920   -2.7114    0.0000 H   0  0  0  0  0  0  0  0  0  0  0  0
   10.9133    0.0342    0.0000 H   0  0  0  0  0  0  0  0  0  0  0  0
   11.9952   -1.1716    0.0000 H   0  0  0  0  0  0  0  0  0  0  0  0
  1  3  2  0  0  0  0
  1  4  2  0  0  0  0
  1  8  1  0  0  0  0
  1 31  1  0  0  0  0
  2 25  1  0  0  0  0
  2 63  1  0  0  0  0
  5  9  1  0  0  0  0
  5 10  1  0  0  0  0
  5 14  1  0  0  0  0
  6 23  1  0  0  0  0
  6 25  1  0  0  0  0
  6 55  1  0  0  0  0
  7 22  1  0  0  0  0
  7 24  2  0  0  0  0
  8 27  1  0  0  0  0
  8 58  1  0  0  0  0
  9 11  1  0  0  0  0
  9 38  1  0  0  0  0
  9 39  1  0  0  0  0
 10 12  1  0  0  0  0
 10 40  1  0  0  0  0
 10 41  1  0  0  0  0
 11 13  1  0  0  0  0
 11 42  1  0  0  0  0
 11 43  1  0  0  0  0
 12 13  1  0  0  0  0
 12 44  1  0  0  0  0
 12 45  1  0  0  0  0
 13 46  1  0  0  0  0
 13 47  1  0  0  0  0
 14 15  1  0  0  0  0
 14 48  1  0  0  0  0
 14 49  1  0  0  0  0
 15 16  2  0  0  0  0
 15 17  1  0  0  0  0
 16 19  1  0  0  0  0
 16 50  1  0  0  0  0
 17 20  2  0  0  0  0
 17 51  1  0  0  0  0
 18 21  1  0  0  0  0
 18 23  2  0  0  0  0
 18 26  1  0  0  0  0
 19 22  2  0  0  0  0
 19 52  1  0  0  0  0
 20 22  1  0  0  0  0
 20 53  1  0  0  0  0
 21 24  1  0  0  0  0
 21 25  2  0  0  0  0
 23 28  1  0  0  0  0
 24 30  1  0  0  0  0
 26 27  2  0  0  0  0
 26 54  1  0  0  0  0
 27 29  1  0  0  0  0
 28 29  2  0  0  0  0
 28 56  1  0  0  0  0
 29 57  1  0  0  0  0
 30 32  2  0  0  0  0
 30 33  1  0  0  0  0
 31 34  1  0  0  0  0
 31 59  1  0  0  0  0
 31 60  1  0  0  0  0
 32 35  1  0  0  0  0
 32 61  1  0  0  0  0
 33 36  2  0  0  0  0
 33 62  1  0  0  0  0
 34 64  1  0  0  0  0
 34 65  1  0  0  0  0
 34 66  1  0  0  0  0
 35 37  2  0  0  0  0
 35 67  1  0  0  0  0
 36 37  1  0  0  0  0
 36 68  1  0  0  0  0
 37 69  1  0  0  0  0
M  END
> <PUBCHEM_COMPOUND_CID>
135421442

> <PUBCHEM_COMPOUND_CANONICALIZED>
1

> <PUBCHEM_CACTVS_COMPLEXITY>
855

> <PUBCHEM_CACTVS_HBOND_ACCEPTOR>
6

> <PUBCHEM_CACTVS_HBOND_DONOR>
3

> <PUBCHEM_CACTVS_ROTATABLE_BOND>
8

> <PUBCHEM_CACTVS_SUBSKEYS>
AAADcfB7sABAAAAAAAAAAAAAAAAAAWAAAAA8YMEAAAAAAFgB9AAAHgQQSAAADAjF3gSyxPPJkgKgAyRiRHDCgCAhIiAImSA8bJ0IJuLCkZOEcAhk0BHI2Aew0OEOiACAQAACAAAQAQCAAAQAAAAAAAAAAA==

> <PUBCHEM_IUPAC_OPENEYE_NAME>
N-[2-hydroxy-3-[C-phenyl-N-[4-(1-piperidylmethyl)phenyl]carbonimidoyl]-1H-indol-5-yl]ethanesulfonamide

> <PUBCHEM_IUPAC_CAS_NAME>
N-[2-hydroxy-3-[phenyl-[4-(1-piperidinylmethyl)phenyl]iminomethyl]-1H-indol-5-yl]ethanesulfonamide

> <PUBCHEM_IUPAC_NAME_MARKUP>
<I>N</I>-[2-hydroxy-3-[<I>C</I>-phenyl-<I>N</I>-[4-(piperidin-1-ylmethyl)phenyl]carbonimidoyl]-1<I>H</I>-indol-5-yl]ethanesulfonamide

> <PUBCHEM_IUPAC_NAME>
N-[2-hydroxy-3-[C-phenyl-N-[4-(piperidin-1-ylmethyl)phenyl]carbonimidoyl]-1H-indol-5-yl]ethanesulfonamide

> <PUBCHEM_IUPAC_SYSTEMATIC_NAME>
N-[2-oxidanyl-3-[C-phenyl-N-[4-(piperidin-1-ylmethyl)phenyl]carbonimidoyl]-1H-indol-5-yl]ethanesulfonamide

> <PUBCHEM_IUPAC_TRADITIONAL_NAME>
N-[2-hydroxy-3-[C-phenyl-N-[4-(piperidinomethyl)phenyl]carbonimidoyl]-1H-indol-5-yl]ethanesulfonamide

> <PUBCHEM_IUPAC_INCHI>
InChI=1S/C29H32N4O3S/c1-2-37(35,36)32-24-15-16-26-25(19-24)27(29(34)31-26)28(22-9-5-3-6-10-22)30-23-13-11-21(12-14-23)20-33-17-7-4-8-18-33/h3,5-6,9-16,19,31-32,34H,2,4,7-8,17-18,20H2,1H3

> <PUBCHEM_IUPAC_INCHIKEY>
HYHIYZMIFPJROG-UHFFFAOYSA-N

> <PUBCHEM_XLOGP3_AA>
5.2

> <PUBCHEM_EXACT_MASS>
516.21951207

> <PUBCHEM_MOLECULAR_FORMULA>
C29H32N4O3S

> <PUBCHEM_MOLECULAR_WEIGHT>
516.7

> <PUBCHEM_SMILES>
CCS(=O)(=O)NC1=CC2=C(C=C1)NC(=C2C(=NC3=CC=C(C=C3)CN4CCCCC4)C5=CC=CC=C5)O

> <PUBCHEM_OPENEYE_CAN_SMILES>
CCS(=O)(=O)NC1=CC2=C(C=C1)NC(=C2C(=NC3=CC=C(C=C3)CN4CCCCC4)C5=CC=CC=C5)O

> <PUBCHEM_OPENEYE_ISO_SMILES>
CCS(=O)(=O)NC1=CC2=C(C=C1)NC(=C2C(=NC3=CC=C(C=C3)CN4CCCCC4)C5=CC=CC=C5)O

> <PUBCHEM_CACTVS_TPSA>
106

> <PUBCHEM_MONOISOTOPIC_WEIGHT>
516.21951207

> <PUBCHEM_TOTAL_CHARGE>
0

> <PUBCHEM_HEAVY_ATOM_COUNT>
37

> <PUBCHEM_ATOM_DEF_STEREO_COUNT>
0

> <PUBCHEM_ATOM_UDEF_STEREO_COUNT>
0

> <PUBCHEM_BOND_DEF_STEREO_COUNT>
0

> <PUBCHEM_BOND_UDEF_STEREO_COUNT>
0

> <PUBCHEM_ISOTOPIC_ATOM_COUNT>
0

> <PUBCHEM_COMPONENT_COUNT>
1

> <PUBCHEM_CACTVS_TAUTO_COUNT>
-1

> <PUBCHEM_COORDINATE_TYPE>
1
5
255

> <PUBCHEM_BONDANNOTATIONS>
15  16  8
15  17  8
16  19  8
17  20  8
18  21  8
18  23  8
18  26  8
19  22  8
20  22  8
21  25  8
23  28  8
26  27  8
27  29  8
28  29  8
30  32  8
30  33  8
32  35  8
33  36  8
35  37  8
36  37  8
6  23  8
6  25  8

$$$$
