15949613
  -OEChem-03202500072D

 47 50  0     0  0  0  0  0  0999 V2000
    9.7942   -3.0000    0.0000 F   0  0  0  0  0  0  0  0  0  0  0  0
    2.0000   -2.5000    0.0000 F   0  0  0  0  0  0  0  0  0  0  0  0
    2.3660   -1.1340    0.0000 F   0  0  0  0  0  0  0  0  0  0  0  0
    3.3660   -2.8660    0.0000 F   0  0  0  0  0  0  0  0  0  0  0  0
   11.5263   -0.0000    0.0000 O   0  0  0  0  0  0  0  0  0  0  0  0
    7.1962   -0.5000    0.0000 O   0  0  0  0  0  0  0  0  0  0  0  0
   13.3385    1.1953    0.0000 N   0  0  0  0  0  0  0  0  0  0  0  0
   11.5263    3.0000    0.0000 N   0  0  0  0  0  0  0  0  0  0  0  0
   10.6603    1.5000    0.0000 N   0  0  0  0  0  0  0  0  0  0  0  0
    8.0622   -2.0000    0.0000 N   0  0  0  0  0  0  0  0  0  0  0  0
    6.3301   -2.0000    0.0000 N   0  0  0  0  0  0  0  0  0  0  0  0
   12.3923    1.5000    0.0000 C   0  0  0  0  0  0  0  0  0  0  0  0
   12.3923    2.5000    0.0000 C   0  0  0  0  0  0  0  0  0  0  0  0
   11.5263    1.0000    0.0000 C   0  0  0  0  0  0  0  0  0  0  0  0
   13.9221    2.0000    0.0000 C   0  0  0  0  0  0  0  0  0  0  0  0
   13.3385    2.8047    0.0000 C   0  0  0  0  0  0  0  0  0  0  0  0
   13.6492    0.2447    0.0000 C   0  0  0  0  0  0  0  0  0  0  0  0
   10.6603   -0.5000    0.0000 C   0  0  0  0  0  0  0  0  0  0  0  0
    8.9282   -1.5000    0.0000 C   0  0  0  0  0  0  0  0  0  0  0  0
    5.4641   -1.5000    0.0000 C   0  0  0  0  0  0  0  0  0  0  0  0
   10.6603   -1.5000    0.0000 C   0  0  0  0  0  0  0  0  0  0  0  0
    9.7942    0.0000    0.0000 C   0  0  0  0  0  0  0  0  0  0  0  0
    9.7942   -2.0000    0.0000 C   0  0  0  0  0  0  0  0  0  0  0  0
    8.9282   -0.5000    0.0000 C   0  0  0  0  0  0  0  0  0  0  0  0
    3.7320   -1.5000    0.0000 C   0  0  0  0  0  0  0  0  0  0  0  0
   10.6603    2.5000    0.0000 C   0  0  0  0  0  0  0  0  0  0  0  0
    4.5981   -2.0000    0.0000 C   0  0  0  0  0  0  0  0  0  0  0  0
    5.4641   -0.5000    0.0000 C   0  0  0  0  0  0  0  0  0  0  0  0
    7.1962   -1.5000    0.0000 C   0  0  0  0  0  0  0  0  0  0  0  0
    3.7320   -0.5000    0.0000 C   0  0  0  0  0  0  0  0  0  0  0  0
    4.5981   -0.0000    0.0000 C   0  0  0  0  0  0  0  0  0  0  0  0
    2.8660   -2.0000    0.0000 C   0  0  0  0  0  0  0  0  0  0  0  0
   14.5421    2.0000    0.0000 H   0  0  0  0  0  0  0  0  0  0  0  0
   13.5311    3.3940    0.0000 H   0  0  0  0  0  0  0  0  0  0  0  0
   13.0599    0.0521    0.0000 H   0  0  0  0  0  0  0  0  0  0  0  0
   13.8418   -0.3446    0.0000 H   0  0  0  0  0  0  0  0  0  0  0  0
   14.2385    0.4374    0.0000 H   0  0  0  0  0  0  0  0  0  0  0  0
   11.1972   -1.8100    0.0000 H   0  0  0  0  0  0  0  0  0  0  0  0
    9.7942    0.6200    0.0000 H   0  0  0  0  0  0  0  0  0  0  0  0
    8.3913   -0.1900    0.0000 H   0  0  0  0  0  0  0  0  0  0  0  0
   10.1233    2.8100    0.0000 H   0  0  0  0  0  0  0  0  0  0  0  0
    4.5981   -2.6200    0.0000 H   0  0  0  0  0  0  0  0  0  0  0  0
    8.0622   -2.6200    0.0000 H   0  0  0  0  0  0  0  0  0  0  0  0
    6.3301   -2.6200    0.0000 H   0  0  0  0  0  0  0  0  0  0  0  0
    6.0010   -0.1900    0.0000 H   0  0  0  0  0  0  0  0  0  0  0  0
    3.1951   -0.1900    0.0000 H   0  0  0  0  0  0  0  0  0  0  0  0
    4.5981    0.6200    0.0000 H   0  0  0  0  0  0  0  0  0  0  0  0
  1 23  1  0  0  0  0
  2 32  1  0  0  0  0
  3 32  1  0  0  0  0
  4 32  1  0  0  0  0
  5 14  1  0  0  0  0
  5 18  1  0  0  0  0
  6 29  2  0  0  0  0
  7 12  1  0  0  0  0
  7 15  1  0  0  0  0
  7 17  1  0  0  0  0
  8 13  1  0  0  0  0
  8 26  2  0  0  0  0
  9 14  2  0  0  0  0
  9 26  1  0  0  0  0
 10 19  1  0  0  0  0
 10 29  1  0  0  0  0
 10 43  1  0  0  0  0
 11 20  1  0  0  0  0
 11 29  1  0  0  0  0
 11 44  1  0  0  0  0
 12 13  2  0  0  0  0
 12 14  1  0  0  0  0
 13 16  1  0  0  0  0
 15 16  2  0  0  0  0
 15 33  1  0  0  0  0
 16 34  1  0  0  0  0
 17 35  1  0  0  0  0
 17 36  1  0  0  0  0
 17 37  1  0  0  0  0
 18 21  2  0  0  0  0
 18 22  1  0  0  0  0
 19 23  2  0  0  0  0
 19 24  1  0  0  0  0
 20 27  1  0  0  0  0
 20 28  2  0  0  0  0
 21 23  1  0  0  0  0
 21 38  1  0  0  0  0
 22 24  2  0  0  0  0
 22 39  1  0  0  0  0
 24 40  1  0  0  0  0
 25 27  2  0  0  0  0
 25 30  1  0  0  0  0
 25 32  1  0  0  0  0
 26 41  1  0  0  0  0
 27 42  1  0  0  0  0
 28 31  1  0  0  0  0
 28 45  1  0  0  0  0
 30 31  2  0  0  0  0
 30 46  1  0  0  0  0
 31 47  1  0  0  0  0
M  END
> <PUBCHEM_COMPOUND_CID>
15949613

> <PUBCHEM_COMPOUND_CANONICALIZED>
1

> <PUBCHEM_CACTVS_COMPLEXITY>
654

> <PUBCHEM_CACTVS_HBOND_ACCEPTOR>
8

> <PUBCHEM_CACTVS_HBOND_DONOR>
2

> <PUBCHEM_CACTVS_ROTATABLE_BOND>
4

> <PUBCHEM_CACTVS_SUBSKEYS>
AAADccB7scAAAAAAAAAAAAAAAAAAAWAAAAA8YIAAAAAAAFgB/AAAHwAQAAAADAzBnhw/1rfMFACoAzRndASCiC0xcqAJ2CA/fJiObuLE+dufPCju1BvY6Cew0AIOAEAAQAAAAAAAgACAAAAAAAAAAAAAAA==

> <PUBCHEM_IUPAC_OPENEYE_NAME>
1-[2-fluoro-4-(5-methylpyrrolo[3,2-d]pyrimidin-4-yl)oxy-phenyl]-3-[3-(trifluoromethyl)phenyl]urea

> <PUBCHEM_IUPAC_CAS_NAME>
1-[2-fluoro-4-[(5-methyl-4-pyrrolo[3,2-d]pyrimidinyl)oxy]phenyl]-3-[3-(trifluoromethyl)phenyl]urea

> <PUBCHEM_IUPAC_NAME_MARKUP>
1-[2-fluoro-4-(5-methylpyrrolo[3,2-d]pyrimidin-4-yl)oxyphenyl]-3-[3-(trifluoromethyl)phenyl]urea

> <PUBCHEM_IUPAC_NAME>
1-[2-fluoro-4-(5-methylpyrrolo[3,2-d]pyrimidin-4-yl)oxyphenyl]-3-[3-(trifluoromethyl)phenyl]urea

> <PUBCHEM_IUPAC_SYSTEMATIC_NAME>
1-[2-fluoranyl-4-(5-methylpyrrolo[3,2-d]pyrimidin-4-yl)oxy-phenyl]-3-[3-(trifluoromethyl)phenyl]urea

> <PUBCHEM_IUPAC_TRADITIONAL_NAME>
1-[2-fluoro-4-(5-methylpyrrolo[3,2-d]pyrimidin-4-yl)oxy-phenyl]-3-[3-(trifluoromethyl)phenyl]urea

> <PUBCHEM_IUPAC_INCHI>
InChI=1S/C21H15F4N5O2/c1-30-8-7-17-18(30)19(27-11-26-17)32-14-5-6-16(15(22)10-14)29-20(31)28-13-4-2-3-12(9-13)21(23,24)25/h2-11H,1H3,(H2,28,29,31)

> <PUBCHEM_IUPAC_INCHIKEY>
TWOLOZGQZKJZKJ-UHFFFAOYSA-N

> <PUBCHEM_XLOGP3_AA>
3.8

> <PUBCHEM_EXACT_MASS>
445.11618739

> <PUBCHEM_MOLECULAR_FORMULA>
C21H15F4N5O2

> <PUBCHEM_MOLECULAR_WEIGHT>
445.4

> <PUBCHEM_SMILES>
CN1C=CC2=C1C(=NC=N2)OC3=CC(=C(C=C3)NC(=O)NC4=CC=CC(=C4)C(F)(F)F)F

> <PUBCHEM_OPENEYE_CAN_SMILES>
CN1C=CC2=C1C(=NC=N2)OC3=CC(=C(C=C3)NC(=O)NC4=CC=CC(=C4)C(F)(F)F)F

> <PUBCHEM_OPENEYE_ISO_SMILES>
CN1C=CC2=C1C(=NC=N2)OC3=CC(=C(C=C3)NC(=O)NC4=CC=CC(=C4)C(F)(F)F)F

> <PUBCHEM_CACTVS_TPSA>
81.1

> <PUBCHEM_MONOISOTOPIC_WEIGHT>
445.11618739

> <PUBCHEM_TOTAL_CHARGE>
0

> <PUBCHEM_HEAVY_ATOM_COUNT>
32

> <PUBCHEM_ATOM_DEF_STEREO_COUNT>
0

> <PUBCHEM_ATOM_UDEF_STEREO_COUNT>
0

> <PUBCHEM_BOND_DEF_STEREO_COUNT>
0

> <PUBCHEM_BOND_UDEF_STEREO_COUNT>
0

> <PUBCHEM_ISOTOPIC_ATOM_COUNT>
0

> <PUBCHEM_COMPONENT_COUNT>
1

> <PUBCHEM_CACTVS_TAUTO_COUNT>
-1

> <PUBCHEM_COORDINATE_TYPE>
1
5
255

> <PUBCHEM_BONDANNOTATIONS>
12  13  8
12  14  8
13  16  8
15  16  8
18  21  8
18  22  8
19  23  8
19  24  8
20  27  8
20  28  8
21  23  8
22  24  8
25  27  8
25  30  8
28  31  8
30  31  8
7  12  8
7  15  8
8  13  8
8  26  8
9  14  8
9  26  8

$$$$
