49830646
  -OEChem-03202501232D

 73 76  0     1  0  0  0  0  0999 V2000
   11.7088   -1.4440    0.0000 O   0  0  0  0  0  0  0  0  0  0  0  0
    9.0635   -1.3929    0.0000 O   0  0  0  0  0  0  0  0  0  0  0  0
    5.5717    1.3437    0.0000 O   0  0  0  0  0  0  0  0  0  0  0  0
    5.4672   -1.6508    0.0000 N   0  0  0  0  0  0  0  0  0  0  0  0
    9.5987   -3.0401    0.0000 N   0  0  0  0  0  0  0  0  0  0  0  0
    4.4890   -1.8587    0.0000 N   0  0  0  0  0  0  0  0  0  0  0  0
    6.4378   -0.1563    0.0000 N   0  0  0  0  0  0  0  0  0  0  0  0
    7.3038    1.3437    0.0000 N   0  0  0  0  0  0  0  0  0  0  0  0
    2.9945   -0.8881    0.0000 C   0  0  0  0  0  0  0  0  0  0  0  0
   10.5498   -2.7311    0.0000 C   0  0  3  0  0  0  0  0  0  0  0  0
    3.9890   -0.9927    0.0000 C   0  0  0  0  0  0  0  0  0  0  0  0
   11.2929   -3.4002    0.0000 C   0  0  0  0  0  0  0  0  0  0  0  0
    2.0000   -0.7836    0.0000 C   0  0  0  0  0  0  0  0  0  0  0  0
    2.8900   -1.8827    0.0000 C   0  0  0  0  0  0  0  0  0  0  0  0
    3.0990    0.1064    0.0000 C   0  0  0  0  0  0  0  0  0  0  0  0
    4.6582   -0.2495    0.0000 C   0  0  0  0  0  0  0  0  0  0  0  0
    5.5717   -0.6563    0.0000 C   0  0  0  0  0  0  0  0  0  0  0  0
   10.7577   -1.7530    0.0000 C   0  0  0  0  0  0  0  0  0  0  0  0
   12.2440   -3.0912    0.0000 C   0  0  0  0  0  0  0  0  0  0  0  0
   11.0850   -4.3784    0.0000 C   0  0  0  0  0  0  0  0  0  0  0  0
    6.2103   -2.3199    0.0000 C   0  0  0  0  0  0  0  0  0  0  0  0
    8.8556   -2.3710    0.0000 C   0  0  0  0  0  0  0  0  0  0  0  0
    7.9045   -2.6800    0.0000 C   0  0  0  0  0  0  0  0  0  0  0  0
    7.1614   -2.0109    0.0000 C   0  0  0  0  0  0  0  0  0  0  0  0
    6.0024   -3.2981    0.0000 C   0  0  0  0  0  0  0  0  0  0  0  0
    7.6966   -3.6582    0.0000 C   0  0  0  0  0  0  0  0  0  0  0  0
    6.7456   -3.9672    0.0000 C   0  0  0  0  0  0  0  0  0  0  0  0
    6.4378    0.8437    0.0000 C   0  0  0  0  0  0  0  0  0  0  0  0
    7.3038    2.3437    0.0000 C   0  0  0  0  0  0  0  0  0  0  0  0
    8.1698    2.8437    0.0000 C   0  0  0  0  0  0  0  0  0  0  0  0
    8.1698    3.8437    0.0000 C   0  0  0  0  0  0  0  0  0  0  0  0
    6.4378    2.8437    0.0000 C   0  0  0  0  0  0  0  0  0  0  0  0
    9.0637    2.3091    0.0000 C   0  0  0  0  0  0  0  0  0  0  0  0
    7.3038    4.3437    0.0000 C   0  0  0  0  0  0  0  0  0  0  0  0
    6.4378    3.8437    0.0000 C   0  0  0  0  0  0  0  0  0  0  0  0
    9.0637    4.3784    0.0000 C   0  0  0  0  0  0  0  0  0  0  0  0
    9.9698    2.8229    0.0000 C   0  0  0  0  0  0  0  0  0  0  0  0
    9.9698    3.8646    0.0000 C   0  0  0  0  0  0  0  0  0  0  0  0
   10.4209   -3.3376    0.0000 H   0  0  0  0  0  0  0  0  0  0  0  0
   11.4218   -2.7938    0.0000 H   0  0  0  0  0  0  0  0  0  0  0  0
    2.0648   -0.1670    0.0000 H   0  0  0  0  0  0  0  0  0  0  0  0
    1.3834   -0.7188    0.0000 H   0  0  0  0  0  0  0  0  0  0  0  0
    1.9352   -1.4002    0.0000 H   0  0  0  0  0  0  0  0  0  0  0  0
    2.2734   -1.8178    0.0000 H   0  0  0  0  0  0  0  0  0  0  0  0
    2.8252   -2.4993    0.0000 H   0  0  0  0  0  0  0  0  0  0  0  0
    3.5066   -1.9475    0.0000 H   0  0  0  0  0  0  0  0  0  0  0  0
    3.7156    0.0416    0.0000 H   0  0  0  0  0  0  0  0  0  0  0  0
    3.1639    0.7230    0.0000 H   0  0  0  0  0  0  0  0  0  0  0  0
    2.4824    0.1712    0.0000 H   0  0  0  0  0  0  0  0  0  0  0  0
    4.5293    0.3569    0.0000 H   0  0  0  0  0  0  0  0  0  0  0  0
   10.6714   -1.1390    0.0000 H   0  0  0  0  0  0  0  0  0  0  0  0
   10.1381   -1.7313    0.0000 H   0  0  0  0  0  0  0  0  0  0  0  0
    9.4698   -3.6466    0.0000 H   0  0  0  0  0  0  0  0  0  0  0  0
   12.4356   -3.6809    0.0000 H   0  0  0  0  0  0  0  0  0  0  0  0
   12.8337   -2.8996    0.0000 H   0  0  0  0  0  0  0  0  0  0  0  0
   12.0524   -2.5016    0.0000 H   0  0  0  0  0  0  0  0  0  0  0  0
   10.4786   -4.2495    0.0000 H   0  0  0  0  0  0  0  0  0  0  0  0
   10.9561   -4.9848    0.0000 H   0  0  0  0  0  0  0  0  0  0  0  0
   11.6915   -4.5073    0.0000 H   0  0  0  0  0  0  0  0  0  0  0  0
    7.2903   -1.4044    0.0000 H   0  0  0  0  0  0  0  0  0  0  0  0
    6.9747   -0.4663    0.0000 H   0  0  0  0  0  0  0  0  0  0  0  0
    5.4128   -3.4896    0.0000 H   0  0  0  0  0  0  0  0  0  0  0  0
    8.1574   -4.0730    0.0000 H   0  0  0  0  0  0  0  0  0  0  0  0
    6.6167   -4.5736    0.0000 H   0  0  0  0  0  0  0  0  0  0  0  0
   11.8377   -0.8375    0.0000 H   0  0  0  0  0  0  0  0  0  0  0  0
    7.8407    1.0337    0.0000 H   0  0  0  0  0  0  0  0  0  0  0  0
    5.9008    2.5337    0.0000 H   0  0  0  0  0  0  0  0  0  0  0  0
    9.0566    1.6891    0.0000 H   0  0  0  0  0  0  0  0  0  0  0  0
    7.3038    4.9637    0.0000 H   0  0  0  0  0  0  0  0  0  0  0  0
    5.9008    4.1537    0.0000 H   0  0  0  0  0  0  0  0  0  0  0  0
    9.0566    4.9984    0.0000 H   0  0  0  0  0  0  0  0  0  0  0  0
   10.5055    2.5109    0.0000 H   0  0  0  0  0  0  0  0  0  0  0  0
   10.5055    4.1766    0.0000 H   0  0  0  0  0  0  0  0  0  0  0  0
  1 18  1  0  0  0  0
  1 65  1  0  0  0  0
  2 22  2  0  0  0  0
  3 28  2  0  0  0  0
  4  6  1  0  0  0  0
  4 17  1  0  0  0  0
  4 21  1  0  0  0  0
  5 10  1  0  0  0  0
  5 22  1  0  0  0  0
  5 53  1  0  0  0  0
  6 11  2  0  0  0  0
  7 17  1  0  0  0  0
  7 28  1  0  0  0  0
  7 61  1  0  0  0  0
  8 28  1  0  0  0  0
  8 29  1  0  0  0  0
  8 66  1  0  0  0  0
  9 11  1  0  0  0  0
  9 13  1  0  0  0  0
  9 14  1  0  0  0  0
  9 15  1  0  0  0  0
 10 12  1  0  0  0  0
 10 18  1  0  0  0  0
 10 39  1  0  0  0  0
 11 16  1  0  0  0  0
 12 19  1  0  0  0  0
 12 20  1  0  0  0  0
 12 40  1  0  0  0  0
 13 41  1  0  0  0  0
 13 42  1  0  0  0  0
 13 43  1  0  0  0  0
 14 44  1  0  0  0  0
 14 45  1  0  0  0  0
 14 46  1  0  0  0  0
 15 47  1  0  0  0  0
 15 48  1  0  0  0  0
 15 49  1  0  0  0  0
 16 17  2  0  0  0  0
 16 50  1  0  0  0  0
 18 51  1  0  0  0  0
 18 52  1  0  0  0  0
 19 54  1  0  0  0  0
 19 55  1  0  0  0  0
 19 56  1  0  0  0  0
 20 57  1  0  0  0  0
 20 58  1  0  0  0  0
 20 59  1  0  0  0  0
 21 24  1  0  0  0  0
 21 25  2  0  0  0  0
 22 23  1  0  0  0  0
 23 24  2  0  0  0  0
 23 26  1  0  0  0  0
 24 60  1  0  0  0  0
 25 27  1  0  0  0  0
 25 62  1  0  0  0  0
 26 27  2  0  0  0  0
 26 63  1  0  0  0  0
 27 64  1  0  0  0  0
 29 30  1  0  0  0  0
 29 32  2  0  0  0  0
 30 31  1  0  0  0  0
 30 33  2  0  0  0  0
 31 34  1  0  0  0  0
 31 36  2  0  0  0  0
 32 35  1  0  0  0  0
 32 67  1  0  0  0  0
 33 37  1  0  0  0  0
 33 68  1  0  0  0  0
 34 35  2  0  0  0  0
 34 69  1  0  0  0  0
 35 70  1  0  0  0  0
 36 38  1  0  0  0  0
 36 71  1  0  0  0  0
 37 38  2  0  0  0  0
 37 72  1  0  0  0  0
 38 73  1  0  0  0  0
M  END
> <PUBCHEM_COMPOUND_CID>
49830646

> <PUBCHEM_COMPOUND_CANONICALIZED>
1

> <PUBCHEM_CACTVS_COMPLEXITY>
799

> <PUBCHEM_CACTVS_HBOND_ACCEPTOR>
4

> <PUBCHEM_CACTVS_HBOND_DONOR>
4

> <PUBCHEM_CACTVS_ROTATABLE_BOND>
8

> <PUBCHEM_CACTVS_SUBSKEYS>
AAADcfB7sAAAAAAAAAAAAAAAAAAAAWAAAAAwYMAAAAAAAADB1AAAHgAYCAAADyjhngYz8NLIAgCqAydydACSBCMlAgAdmKE4ZNiKMHLA1dGE5Qh8nwLYyacciICPgAAAQAASAAAAAACAACQAAAAAAAAAAA==

> <PUBCHEM_IUPAC_OPENEYE_NAME>
3-[3-tert-butyl-5-(1-naphthylcarbamoylamino)pyrazol-1-yl]-N-[1-(hydroxymethyl)-2-methyl-propyl]benzamide

> <PUBCHEM_IUPAC_CAS_NAME>
3-[3-tert-butyl-5-[[(1-naphthalenylamino)-oxomethyl]amino]-1-pyrazolyl]-N-(1-hydroxy-3-methylbutan-2-yl)benzamide

> <PUBCHEM_IUPAC_NAME_MARKUP>
3-[3-<I>tert</I>-butyl-5-(naphthalen-1-ylcarbamoylamino)pyrazol-1-yl]-<I>N</I>-(1-hydroxy-3-methylbutan-2-yl)benzamide

> <PUBCHEM_IUPAC_NAME>
3-[3-tert-butyl-5-(naphthalen-1-ylcarbamoylamino)pyrazol-1-yl]-N-(1-hydroxy-3-methylbutan-2-yl)benzamide

> <PUBCHEM_IUPAC_SYSTEMATIC_NAME>
3-[3-tert-butyl-5-(naphthalen-1-ylcarbamoylamino)pyrazol-1-yl]-N-(3-methyl-1-oxidanyl-butan-2-yl)benzamide

> <PUBCHEM_IUPAC_TRADITIONAL_NAME>
3-[3-tert-butyl-5-(1-naphthylcarbamoylamino)pyrazol-1-yl]-N-(2-methyl-1-methylol-propyl)benzamide

> <PUBCHEM_IUPAC_INCHI>
InChI=1S/C30H35N5O3/c1-19(2)25(18-36)31-28(37)21-12-8-13-22(16-21)35-27(17-26(34-35)30(3,4)5)33-29(38)32-24-15-9-11-20-10-6-7-14-23(20)24/h6-17,19,25,36H,18H2,1-5H3,(H,31,37)(H2,32,33,38)

> <PUBCHEM_IUPAC_INCHIKEY>
LHLBQSAMDHYBJT-UHFFFAOYSA-N

> <PUBCHEM_XLOGP3_AA>
5.7

> <PUBCHEM_EXACT_MASS>
513.27399000

> <PUBCHEM_MOLECULAR_FORMULA>
C30H35N5O3

> <PUBCHEM_MOLECULAR_WEIGHT>
513.6

> <PUBCHEM_SMILES>
CC(C)C(CO)NC(=O)C1=CC(=CC=C1)N2C(=CC(=N2)C(C)(C)C)NC(=O)NC3=CC=CC4=CC=CC=C43

> <PUBCHEM_OPENEYE_CAN_SMILES>
CC(C)C(CO)NC(=O)C1=CC(=CC=C1)N2C(=CC(=N2)C(C)(C)C)NC(=O)NC3=CC=CC4=CC=CC=C43

> <PUBCHEM_OPENEYE_ISO_SMILES>
CC(C)C(CO)NC(=O)C1=CC(=CC=C1)N2C(=CC(=N2)C(C)(C)C)NC(=O)NC3=CC=CC4=CC=CC=C43

> <PUBCHEM_CACTVS_TPSA>
108

> <PUBCHEM_MONOISOTOPIC_WEIGHT>
513.27399000

> <PUBCHEM_TOTAL_CHARGE>
0

> <PUBCHEM_HEAVY_ATOM_COUNT>
38

> <PUBCHEM_ATOM_DEF_STEREO_COUNT>
0

> <PUBCHEM_ATOM_UDEF_STEREO_COUNT>
1

> <PUBCHEM_BOND_DEF_STEREO_COUNT>
0

> <PUBCHEM_BOND_UDEF_STEREO_COUNT>
0

> <PUBCHEM_ISOTOPIC_ATOM_COUNT>
0

> <PUBCHEM_COMPONENT_COUNT>
1

> <PUBCHEM_CACTVS_TAUTO_COUNT>
-1

> <PUBCHEM_COORDINATE_TYPE>
1
5
255

> <PUBCHEM_BONDANNOTATIONS>
10  18  3
11  16  8
16  17  8
21  24  8
21  25  8
23  24  8
23  26  8
25  27  8
26  27  8
29  30  8
29  32  8
30  31  8
30  33  8
31  34  8
31  36  8
32  35  8
33  37  8
34  35  8
36  38  8
37  38  8
4  17  8
4  6  8
6  11  8

$$$$
