6538897
  -OEChem-03202505362D

 30 33  0     0  0  0  0  0  0999 V2000
    2.0000   -1.6049    0.0000 Br  0  0  0  0  0  0  0  0  0  0  0  0
    5.2364    2.5713    0.0000 O   0  0  0  0  0  0  0  0  0  0  0  0
    6.0343   -1.5050    0.0000 N   0  0  0  0  0  0  0  0  0  0  0  0
    6.6703    1.6703    0.0000 N   0  0  0  0  0  0  0  0  0  0  0  0
    7.8238   -0.8066    0.0000 N   0  0  0  0  0  0  0  0  0  0  0  0
    5.2693   -0.0864    0.0000 C   0  0  0  0  0  0  0  0  0  0  0  0
    6.1703   -0.5203    0.0000 C   0  0  0  0  0  0  0  0  0  0  0  0
    4.5842   -0.8067    0.0000 C   0  0  0  0  0  0  0  0  0  0  0  0
    5.0468    0.8885    0.0000 C   0  0  0  0  0  0  0  0  0  0  0  0
    5.0561   -1.6817    0.0000 C   0  0  0  0  0  0  0  0  0  0  0  0
    7.0713   -0.0864    0.0000 C   0  0  0  0  0  0  0  0  0  0  0  0
    7.2938    0.8885    0.0000 C   0  0  0  0  0  0  0  0  0  0  0  0
    5.6703    1.6703    0.0000 C   0  0  0  0  0  0  0  0  0  0  0  0
    3.5498   -0.7607    0.0000 C   0  0  0  0  0  0  0  0  0  0  0  0
    4.5262   -2.5713    0.0000 C   0  0  0  0  0  0  0  0  0  0  0  0
    2.9995   -1.6378    0.0000 C   0  0  0  0  0  0  0  0  0  0  0  0
    3.4909   -2.5492    0.0000 C   0  0  0  0  0  0  0  0  0  0  0  0
    8.2843    1.2108    0.0000 C   0  0  0  0  0  0  0  0  0  0  0  0
    9.0533    0.5082    0.0000 C   0  0  0  0  0  0  0  0  0  0  0  0
    8.8215   -0.5073    0.0000 C   0  0  0  0  0  0  0  0  0  0  0  0
    4.6603    1.3732    0.0000 H   0  0  0  0  0  0  0  0  0  0  0  0
    4.4882    0.6195    0.0000 H   0  0  0  0  0  0  0  0  0  0  0  0
    6.4817   -1.9343    0.0000 H   0  0  0  0  0  0  0  0  0  0  0  0
    3.2619   -0.2116    0.0000 H   0  0  0  0  0  0  0  0  0  0  0  0
    4.8267   -3.1136    0.0000 H   0  0  0  0  0  0  0  0  0  0  0  0
    6.9393    2.2289    0.0000 H   0  0  0  0  0  0  0  0  0  0  0  0
    3.1675   -3.0782    0.0000 H   0  0  0  0  0  0  0  0  0  0  0  0
    8.4153    1.8168    0.0000 H   0  0  0  0  0  0  0  0  0  0  0  0
    9.6451    0.6933    0.0000 H   0  0  0  0  0  0  0  0  0  0  0  0
    9.2744   -0.9307    0.0000 H   0  0  0  0  0  0  0  0  0  0  0  0
  1 16  1  0  0  0  0
  2 13  2  0  0  0  0
  3  7  1  0  0  0  0
  3 10  1  0  0  0  0
  3 23  1  0  0  0  0
  4 12  1  0  0  0  0
  4 13  1  0  0  0  0
  4 26  1  0  0  0  0
  5 11  1  0  0  0  0
  5 20  2  0  0  0  0
  6  7  2  0  0  0  0
  6  8  1  0  0  0  0
  6  9  1  0  0  0  0
  7 11  1  0  0  0  0
  8 10  2  0  0  0  0
  8 14  1  0  0  0  0
  9 13  1  0  0  0  0
  9 21  1  0  0  0  0
  9 22  1  0  0  0  0
 10 15  1  0  0  0  0
 11 12  2  0  0  0  0
 12 18  1  0  0  0  0
 14 16  2  0  0  0  0
 14 24  1  0  0  0  0
 15 17  2  0  0  0  0
 15 25  1  0  0  0  0
 16 17  1  0  0  0  0
 17 27  1  0  0  0  0
 18 19  2  0  0  0  0
 18 28  1  0  0  0  0
 19 20  1  0  0  0  0
 19 29  1  0  0  0  0
 20 30  1  0  0  0  0
M  END
> <PUBCHEM_COMPOUND_CID>
6538897

> <PUBCHEM_COMPOUND_CANONICALIZED>
1

> <PUBCHEM_CACTVS_COMPLEXITY>
405

> <PUBCHEM_CACTVS_HBOND_ACCEPTOR>
2

> <PUBCHEM_CACTVS_HBOND_DONOR>
2

> <PUBCHEM_CACTVS_ROTATABLE_BOND>
0

> <PUBCHEM_CACTVS_SUBSKEYS>
AAADccBzIAAAEAAAAAAAAAAAAAAAAWAAAAA8QAAABYAAAFix/AAAHgBQAAABrAjBngQ8wPLJkACoAzV3VACCgCAxEiQI2SE4dLgIYPLA1ZGUIAhglADIyhccicCegAAgEAACAAAAAEAgAAQAAAAAAAAAAA==

> <PUBCHEM_IUPAC_OPENEYE_NAME>
14-bromo-3,8,18-triazatetracyclo[9.7.0.02,7.012,17]octadeca-1(11),2(7),3,5,12(17),13,15-heptaen-9-one

> <PUBCHEM_IUPAC_CAS_NAME>
14-bromo-3,8,18-triazatetracyclo[9.7.0.02,7.012,17]octadeca-1(11),2(7),3,5,12(17),13,15-heptaen-9-one

> <PUBCHEM_IUPAC_NAME_MARKUP>
14-bromo-3,8,18-triazatetracyclo[9.7.0.0<SUP>2,7</SUP>.0<SUP>12,17</SUP>]octadeca-1(11),2(7),3,5,12(17),13,15-heptaen-9-one

> <PUBCHEM_IUPAC_NAME>
14-bromo-3,8,18-triazatetracyclo[9.7.0.02,7.012,17]octadeca-1(11),2(7),3,5,12(17),13,15-heptaen-9-one

> <PUBCHEM_IUPAC_SYSTEMATIC_NAME>
14-bromanyl-3,8,18-triazatetracyclo[9.7.0.02,7.012,17]octadeca-1(11),2(7),3,5,12(17),13,15-heptaen-9-one

> <PUBCHEM_IUPAC_TRADITIONAL_NAME>
14-bromo-3,8,18-triazatetracyclo[9.7.0.02,7.012,17]octadeca-1(11),2(7),3,5,12(17),13,15-heptaen-9-one

> <PUBCHEM_IUPAC_INCHI>
InChI=1S/C15H10BrN3O/c16-8-3-4-11-9(6-8)10-7-13(20)18-12-2-1-5-17-15(12)14(10)19-11/h1-6,19H,7H2,(H,18,20)

> <PUBCHEM_IUPAC_INCHIKEY>
NTSBZVCEIVPKBJ-UHFFFAOYSA-N

> <PUBCHEM_XLOGP3_AA>
2.2

> <PUBCHEM_EXACT_MASS>
327.00072

> <PUBCHEM_MOLECULAR_FORMULA>
C15H10BrN3O

> <PUBCHEM_MOLECULAR_WEIGHT>
328.16

> <PUBCHEM_SMILES>
C1C2=C(C3=C(C=CC=N3)NC1=O)NC4=C2C=C(C=C4)Br

> <PUBCHEM_OPENEYE_CAN_SMILES>
C1C2=C(C3=C(C=CC=N3)NC1=O)NC4=C2C=C(C=C4)Br

> <PUBCHEM_OPENEYE_ISO_SMILES>
C1C2=C(C3=C(C=CC=N3)NC1=O)NC4=C2C=C(C=C4)Br

> <PUBCHEM_CACTVS_TPSA>
57.8

> <PUBCHEM_MONOISOTOPIC_WEIGHT>
327.00072

> <PUBCHEM_TOTAL_CHARGE>
0

> <PUBCHEM_HEAVY_ATOM_COUNT>
20

> <PUBCHEM_ATOM_DEF_STEREO_COUNT>
0

> <PUBCHEM_ATOM_UDEF_STEREO_COUNT>
0

> <PUBCHEM_BOND_DEF_STEREO_COUNT>
0

> <PUBCHEM_BOND_UDEF_STEREO_COUNT>
0

> <PUBCHEM_ISOTOPIC_ATOM_COUNT>
0

> <PUBCHEM_COMPONENT_COUNT>
1

> <PUBCHEM_CACTVS_TAUTO_COUNT>
-1

> <PUBCHEM_COORDINATE_TYPE>
1
5
255

> <PUBCHEM_BONDANNOTATIONS>
10  15  8
11  12  8
12  18  8
14  16  8
15  17  8
16  17  8
18  19  8
19  20  8
3  10  8
3  7  8
5  11  8
5  20  8
6  7  8
6  8  8
8  10  8
8  14  8

$$$$
