49830831
  -OEChem-03202501502D

 27 29  0     0  0  0  0  0  0999 V2000
    4.9889    3.5326    0.0000 O   0  0  0  0  0  0  0  0  0  0  0  0
    3.7320    2.2774    0.0000 N   0  0  0  0  0  0  0  0  0  0  0  0
    4.6783    0.9726    0.0000 N   0  0  0  0  0  0  0  0  0  0  0  0
    5.2619    1.7774    0.0000 N   0  0  0  0  0  0  0  0  0  0  0  0
    2.8660   -3.2226    0.0000 N   0  0  0  0  0  0  0  0  0  0  0  0
    2.8660    0.7774    0.0000 C   0  0  0  0  0  0  0  0  0  0  0  0
    3.7320    1.2774    0.0000 C   0  0  0  0  0  0  0  0  0  0  0  0
    2.8660   -0.2226    0.0000 C   0  0  0  0  0  0  0  0  0  0  0  0
    2.0000    1.2774    0.0000 C   0  0  0  0  0  0  0  0  0  0  0  0
    2.8660    2.7774    0.0000 C   0  0  0  0  0  0  0  0  0  0  0  0
    4.6783    2.5821    0.0000 C   0  0  0  0  0  0  0  0  0  0  0  0
    2.0000    2.2774    0.0000 C   0  0  0  0  0  0  0  0  0  0  0  0
    3.7320   -0.7226    0.0000 C   0  0  0  0  0  0  0  0  0  0  0  0
    2.0000   -0.7226    0.0000 C   0  0  0  0  0  0  0  0  0  0  0  0
    3.7320   -1.7226    0.0000 C   0  0  0  0  0  0  0  0  0  0  0  0
    2.0000   -1.7226    0.0000 C   0  0  0  0  0  0  0  0  0  0  0  0
    2.8660   -2.2226    0.0000 C   0  0  0  0  0  0  0  0  0  0  0  0
    1.4631    0.9674    0.0000 H   0  0  0  0  0  0  0  0  0  0  0  0
    2.8660    3.3974    0.0000 H   0  0  0  0  0  0  0  0  0  0  0  0
    1.4631    2.5874    0.0000 H   0  0  0  0  0  0  0  0  0  0  0  0
    4.2690   -0.4126    0.0000 H   0  0  0  0  0  0  0  0  0  0  0  0
    1.4631   -0.4126    0.0000 H   0  0  0  0  0  0  0  0  0  0  0  0
    5.8819    1.7774    0.0000 H   0  0  0  0  0  0  0  0  0  0  0  0
    4.2690   -2.0326    0.0000 H   0  0  0  0  0  0  0  0  0  0  0  0
    1.4631   -2.0326    0.0000 H   0  0  0  0  0  0  0  0  0  0  0  0
    2.3291   -3.5326    0.0000 H   0  0  0  0  0  0  0  0  0  0  0  0
    3.4030   -3.5326    0.0000 H   0  0  0  0  0  0  0  0  0  0  0  0
  1 11  2  0  0  0  0
  2  7  1  0  0  0  0
  2 10  1  0  0  0  0
  2 11  1  0  0  0  0
  3  4  1  0  0  0  0
  3  7  2  0  0  0  0
  4 11  1  0  0  0  0
  4 23  1  0  0  0  0
  5 17  1  0  0  0  0
  5 26  1  0  0  0  0
  5 27  1  0  0  0  0
  6  7  1  0  0  0  0
  6  8  1  0  0  0  0
  6  9  2  0  0  0  0
  8 13  2  0  0  0  0
  8 14  1  0  0  0  0
  9 12  1  0  0  0  0
  9 18  1  0  0  0  0
 10 12  2  0  0  0  0
 10 19  1  0  0  0  0
 12 20  1  0  0  0  0
 13 15  1  0  0  0  0
 13 21  1  0  0  0  0
 14 16  2  0  0  0  0
 14 22  1  0  0  0  0
 15 17  2  0  0  0  0
 15 24  1  0  0  0  0
 16 17  1  0  0  0  0
 16 25  1  0  0  0  0
M  END
> <PUBCHEM_COMPOUND_CID>
49830831

> <PUBCHEM_COMPOUND_CANONICALIZED>
1

> <PUBCHEM_CACTVS_COMPLEXITY>
430

> <PUBCHEM_CACTVS_HBOND_ACCEPTOR>
3

> <PUBCHEM_CACTVS_HBOND_DONOR>
2

> <PUBCHEM_CACTVS_ROTATABLE_BOND>
1

> <PUBCHEM_CACTVS_SUBSKEYS>
AAADccBzoAAAAAAAAAAAAAAAAAAAAQAAAAAwQAAAAAAAAEABAAAAHgAYAAAADAjBGAQxwINiAACoAiZmcACSAAAgAgAPiAAoZJiIICKAkZGEIABgngIIyAcQgIAOCAAAAAAAAAAQAAAAAAAAAAAAAAAAAA==

> <PUBCHEM_IUPAC_OPENEYE_NAME>
8-(4-aminophenyl)-2H-[1,2,4]triazolo[4,3-a]pyridin-3-one

> <PUBCHEM_IUPAC_CAS_NAME>
8-(4-aminophenyl)-2H-[1,2,4]triazolo[4,3-a]pyridin-3-one

> <PUBCHEM_IUPAC_NAME_MARKUP>
8-(4-aminophenyl)-2<I>H</I>-[1,2,4]triazolo[4,3-a]pyridin-3-one

> <PUBCHEM_IUPAC_NAME>
8-(4-aminophenyl)-2H-[1,2,4]triazolo[4,3-a]pyridin-3-one

> <PUBCHEM_IUPAC_SYSTEMATIC_NAME>
8-(4-aminophenyl)-2H-[1,2,4]triazolo[4,3-a]pyridin-3-one

> <PUBCHEM_IUPAC_TRADITIONAL_NAME>
8-(4-aminophenyl)-2H-[1,2,4]triazolo[4,3-a]pyridin-3-one

> <PUBCHEM_IUPAC_INCHI>
InChI=1S/C12H10N4O/c13-9-5-3-8(4-6-9)10-2-1-7-16-11(10)14-15-12(16)17/h1-7H,13H2,(H,15,17)

> <PUBCHEM_IUPAC_INCHIKEY>
OYKVNNHWNKCAFM-UHFFFAOYSA-N

> <PUBCHEM_XLOGP3_AA>
1

> <PUBCHEM_EXACT_MASS>
226.08546096

> <PUBCHEM_MOLECULAR_FORMULA>
C12H10N4O

> <PUBCHEM_MOLECULAR_WEIGHT>
226.23

> <PUBCHEM_SMILES>
C1=CN2C(=NNC2=O)C(=C1)C3=CC=C(C=C3)N

> <PUBCHEM_OPENEYE_CAN_SMILES>
C1=CN2C(=NNC2=O)C(=C1)C3=CC=C(C=C3)N

> <PUBCHEM_OPENEYE_ISO_SMILES>
C1=CN2C(=NNC2=O)C(=C1)C3=CC=C(C=C3)N

> <PUBCHEM_CACTVS_TPSA>
70.7

> <PUBCHEM_MONOISOTOPIC_WEIGHT>
226.08546096

> <PUBCHEM_TOTAL_CHARGE>
0

> <PUBCHEM_HEAVY_ATOM_COUNT>
17

> <PUBCHEM_ATOM_DEF_STEREO_COUNT>
0

> <PUBCHEM_ATOM_UDEF_STEREO_COUNT>
0

> <PUBCHEM_BOND_DEF_STEREO_COUNT>
0

> <PUBCHEM_BOND_UDEF_STEREO_COUNT>
0

> <PUBCHEM_ISOTOPIC_ATOM_COUNT>
0

> <PUBCHEM_COMPONENT_COUNT>
1

> <PUBCHEM_CACTVS_TAUTO_COUNT>
-1

> <PUBCHEM_COORDINATE_TYPE>
1
5
255

> <PUBCHEM_BONDANNOTATIONS>
10  12  8
13  15  8
14  16  8
15  17  8
16  17  8
2  10  8
2  11  8
2  7  8
3  4  8
3  7  8
4  11  8
6  7  8
6  9  8
8  13  8
8  14  8
9  12  8

$$$$
