46224697
  -OEChem-03202507092D

 53 58  0     0  0  0  0  0  0999 V2000
    9.5235   -2.4612    0.0000 S   0  0  0  0  0  0  0  0  0  0  0  0
    5.4118    1.4543    0.0000 N   0  0  0  0  0  0  0  0  0  0  0  0
    7.5515    2.8554    0.0000 N   0  0  0  0  0  0  0  0  0  0  0  0
   10.5310   -0.6824    0.0000 N   0  0  0  0  0  0  0  0  0  0  0  0
    6.2623    4.0121    0.0000 N   0  0  0  0  0  0  0  0  0  0  0  0
   11.1146    0.1224    0.0000 N   0  0  0  0  0  0  0  0  0  0  0  0
    2.6164   -0.5916    0.0000 N   0  0  0  0  0  0  0  0  0  0  0  0
    7.9087    4.5502    0.0000 N   0  0  0  0  0  0  0  0  0  0  0  0
    6.9867    1.1224    0.0000 C   0  0  0  0  0  0  0  0  0  0  0  0
    5.9051    2.3173    0.0000 C   0  0  0  0  0  0  0  0  0  0  0  0
    4.4177    1.3463    0.0000 C   0  0  0  0  0  0  0  0  0  0  0  0
    7.8527    0.6224    0.0000 C   0  0  0  0  0  0  0  0  0  0  0  0
    6.8836    2.1111    0.0000 C   0  0  0  0  0  0  0  0  0  0  0  0
    6.0789    0.7172    0.0000 C   0  0  0  0  0  0  0  0  0  0  0  0
    8.7188   -0.8776    0.0000 C   0  0  0  0  0  0  0  0  0  0  0  0
    4.0141    0.4313    0.0000 C   0  0  0  0  0  0  0  0  0  0  0  0
    7.8527   -0.3776    0.0000 C   0  0  0  0  0  0  0  0  0  0  0  0
    9.5848   -0.3776    0.0000 C   0  0  0  0  0  0  0  0  0  0  0  0
    9.5848    0.6224    0.0000 C   0  0  0  0  0  0  0  0  0  0  0  0
    8.7188    1.1224    0.0000 C   0  0  0  0  0  0  0  0  0  0  0  0
    8.7188   -1.8776    0.0000 C   0  0  0  0  0  0  0  0  0  0  0  0
    5.5945    3.2678    0.0000 C   0  0  0  0  0  0  0  0  0  0  0  0
    3.0200    0.3234    0.0000 C   0  0  0  0  0  0  0  0  0  0  0  0
   10.5310    0.9271    0.0000 C   0  0  0  0  0  0  0  0  0  0  0  0
    7.9140   -2.4612    0.0000 C   0  0  0  0  0  0  0  0  0  0  0  0
    8.2188   -3.4075    0.0000 C   0  0  0  0  0  0  0  0  0  0  0  0
    9.2188   -3.4075    0.0000 C   0  0  0  0  0  0  0  0  0  0  0  0
    7.2408    3.8059    0.0000 C   0  0  0  0  0  0  0  0  0  0  0  0
    7.7188   -4.2735    0.0000 C   0  0  0  0  0  0  0  0  0  0  0  0
    9.7188   -4.2735    0.0000 C   0  0  0  0  0  0  0  0  0  0  0  0
    8.2188   -5.1395    0.0000 C   0  0  0  0  0  0  0  0  0  0  0  0
    9.2188   -5.1395    0.0000 C   0  0  0  0  0  0  0  0  0  0  0  0
    4.4588    1.9649    0.0000 H   0  0  0  0  0  0  0  0  0  0  0  0
    3.8156    1.4942    0.0000 H   0  0  0  0  0  0  0  0  0  0  0  0
    5.9511    0.1106    0.0000 H   0  0  0  0  0  0  0  0  0  0  0  0
    3.9730   -0.1873    0.0000 H   0  0  0  0  0  0  0  0  0  0  0  0
    4.6162    0.2834    0.0000 H   0  0  0  0  0  0  0  0  0  0  0  0
    7.3158   -0.6876    0.0000 H   0  0  0  0  0  0  0  0  0  0  0  0
    8.7188    1.7424    0.0000 H   0  0  0  0  0  0  0  0  0  0  0  0
    4.9878    3.3957    0.0000 H   0  0  0  0  0  0  0  0  0  0  0  0
    3.0611    0.9420    0.0000 H   0  0  0  0  0  0  0  0  0  0  0  0
    2.4178    0.4713    0.0000 H   0  0  0  0  0  0  0  0  0  0  0  0
   10.7236   -1.2717    0.0000 H   0  0  0  0  0  0  0  0  0  0  0  0
   10.7236    1.5164    0.0000 H   0  0  0  0  0  0  0  0  0  0  0  0
    7.3247   -2.2686    0.0000 H   0  0  0  0  0  0  0  0  0  0  0  0
    7.0988   -4.2735    0.0000 H   0  0  0  0  0  0  0  0  0  0  0  0
    2.0000   -0.6585    0.0000 H   0  0  0  0  0  0  0  0  0  0  0  0
    2.9825   -1.0919    0.0000 H   0  0  0  0  0  0  0  0  0  0  0  0
   10.3387   -4.2735    0.0000 H   0  0  0  0  0  0  0  0  0  0  0  0
    7.9088   -5.6765    0.0000 H   0  0  0  0  0  0  0  0  0  0  0  0
    9.5288   -5.6765    0.0000 H   0  0  0  0  0  0  0  0  0  0  0  0
    7.7161    5.1395    0.0000 H   0  0  0  0  0  0  0  0  0  0  0  0
    8.5153    4.4224    0.0000 H   0  0  0  0  0  0  0  0  0  0  0  0
  1 21  1  0  0  0  0
  1 27  1  0  0  0  0
  2 10  1  0  0  0  0
  2 11  1  0  0  0  0
  2 14  1  0  0  0  0
  3 13  2  0  0  0  0
  3 28  1  0  0  0  0
  4  6  1  0  0  0  0
  4 18  1  0  0  0  0
  4 43  1  0  0  0  0
  5 22  1  0  0  0  0
  5 28  2  0  0  0  0
  6 24  2  0  0  0  0
  7 23  1  0  0  0  0
  7 47  1  0  0  0  0
  7 48  1  0  0  0  0
  8 28  1  0  0  0  0
  8 52  1  0  0  0  0
  8 53  1  0  0  0  0
  9 12  1  0  0  0  0
  9 13  1  0  0  0  0
  9 14  2  0  0  0  0
 10 13  1  0  0  0  0
 10 22  2  0  0  0  0
 11 16  1  0  0  0  0
 11 33  1  0  0  0  0
 11 34  1  0  0  0  0
 12 17  1  0  0  0  0
 12 20  2  0  0  0  0
 14 35  1  0  0  0  0
 15 17  2  0  0  0  0
 15 18  1  0  0  0  0
 15 21  1  0  0  0  0
 16 23  1  0  0  0  0
 16 36  1  0  0  0  0
 16 37  1  0  0  0  0
 17 38  1  0  0  0  0
 18 19  2  0  0  0  0
 19 20  1  0  0  0  0
 19 24  1  0  0  0  0
 20 39  1  0  0  0  0
 21 25  2  0  0  0  0
 22 40  1  0  0  0  0
 23 41  1  0  0  0  0
 23 42  1  0  0  0  0
 24 44  1  0  0  0  0
 25 26  1  0  0  0  0
 25 45  1  0  0  0  0
 26 27  1  0  0  0  0
 26 29  2  0  0  0  0
 27 30  2  0  0  0  0
 29 31  1  0  0  0  0
 29 46  1  0  0  0  0
 30 32  1  0  0  0  0
 30 49  1  0  0  0  0
 31 32  2  0  0  0  0
 31 50  1  0  0  0  0
 32 51  1  0  0  0  0
M  END
> <PUBCHEM_COMPOUND_CID>
46224697

> <PUBCHEM_COMPOUND_CANONICALIZED>
1

> <PUBCHEM_CACTVS_COMPLEXITY>
652

> <PUBCHEM_CACTVS_HBOND_ACCEPTOR>
6

> <PUBCHEM_CACTVS_HBOND_DONOR>
3

> <PUBCHEM_CACTVS_ROTATABLE_BOND>
5

> <PUBCHEM_CACTVS_SUBSKEYS>
AAADceB7gABAAAAAAAAAAAAAAAAAAWLEgAA8YIAAAAAAAFgB/gAAHAQYAAAADAjBXgQ90fdvEAimAzRnZACThK0xmrBZ+bg4dJiIaOLg2dGUpAhomALoyCcQgMAOiAACAAAGAAAQAAQAAAwAAAAAAAAAAA==

> <PUBCHEM_IUPAC_OPENEYE_NAME>
5-(3-aminopropyl)-7-[7-(benzothiophen-2-yl)-1H-indazol-5-yl]pyrrolo[3,2-d]pyrimidin-2-amine

> <PUBCHEM_IUPAC_CAS_NAME>
5-(3-aminopropyl)-7-[7-(1-benzothiophen-2-yl)-1H-indazol-5-yl]-2-pyrrolo[3,2-d]pyrimidinamine

> <PUBCHEM_IUPAC_NAME_MARKUP>
5-(3-aminopropyl)-7-[7-(1-benzothiophen-2-yl)-1<I>H</I>-indazol-5-yl]pyrrolo[3,2-d]pyrimidin-2-amine

> <PUBCHEM_IUPAC_NAME>
5-(3-aminopropyl)-7-[7-(1-benzothiophen-2-yl)-1H-indazol-5-yl]pyrrolo[3,2-d]pyrimidin-2-amine

> <PUBCHEM_IUPAC_SYSTEMATIC_NAME>
5-(3-azanylpropyl)-7-[7-(1-benzothiophen-2-yl)-1H-indazol-5-yl]pyrrolo[3,2-d]pyrimidin-2-amine

> <PUBCHEM_IUPAC_TRADITIONAL_NAME>
3-[2-amino-7-[7-(benzothiophen-2-yl)-1H-indazol-5-yl]pyrrolo[3,2-d]pyrimidin-5-yl]propylamine

> <PUBCHEM_IUPAC_INCHI>
InChI=1S/C24H21N7S/c25-6-3-7-31-13-18(23-19(31)12-27-24(26)29-23)15-8-16-11-28-30-22(16)17(9-15)21-10-14-4-1-2-5-20(14)32-21/h1-2,4-5,8-13H,3,6-7,25H2,(H,28,30)(H2,26,27,29)

> <PUBCHEM_IUPAC_INCHIKEY>
LRZYYIZFBXFSJB-UHFFFAOYSA-N

> <PUBCHEM_XLOGP3_AA>
3.3

> <PUBCHEM_EXACT_MASS>
439.15791487

> <PUBCHEM_MOLECULAR_FORMULA>
C24H21N7S

> <PUBCHEM_MOLECULAR_WEIGHT>
439.5

> <PUBCHEM_SMILES>
C1=CC=C2C(=C1)C=C(S2)C3=CC(=CC4=C3NN=C4)C5=CN(C6=CN=C(N=C65)N)CCCN

> <PUBCHEM_OPENEYE_CAN_SMILES>
C1=CC=C2C(=C1)C=C(S2)C3=CC(=CC4=C3NN=C4)C5=CN(C6=CN=C(N=C65)N)CCCN

> <PUBCHEM_OPENEYE_ISO_SMILES>
C1=CC=C2C(=C1)C=C(S2)C3=CC(=CC4=C3NN=C4)C5=CN(C6=CN=C(N=C65)N)CCCN

> <PUBCHEM_CACTVS_TPSA>
140

> <PUBCHEM_MONOISOTOPIC_WEIGHT>
439.15791487

> <PUBCHEM_TOTAL_CHARGE>
0

> <PUBCHEM_HEAVY_ATOM_COUNT>
32

> <PUBCHEM_ATOM_DEF_STEREO_COUNT>
0

> <PUBCHEM_ATOM_UDEF_STEREO_COUNT>
0

> <PUBCHEM_BOND_DEF_STEREO_COUNT>
0

> <PUBCHEM_BOND_UDEF_STEREO_COUNT>
0

> <PUBCHEM_ISOTOPIC_ATOM_COUNT>
0

> <PUBCHEM_COMPONENT_COUNT>
1

> <PUBCHEM_CACTVS_TAUTO_COUNT>
-1

> <PUBCHEM_COORDINATE_TYPE>
1
5
255

> <PUBCHEM_BONDANNOTATIONS>
1  21  8
1  27  8
10  13  8
10  22  8
12  17  8
12  20  8
15  17  8
15  18  8
18  19  8
19  20  8
19  24  8
2  10  8
2  14  8
21  25  8
25  26  8
26  27  8
26  29  8
27  30  8
29  31  8
3  13  8
3  28  8
30  32  8
31  32  8
4  18  8
4  6  8
5  22  8
5  28  8
6  24  8
9  13  8
9  14  8

$$$$
