49830492
  -OEChem-03202503592D

 27 29  0     0  0  0  0  0  0999 V2000
    2.0000    1.7500    0.0000 Cl  0  0  0  0  0  0  0  0  0  0  0  0
    8.4530    1.0052    0.0000 O   0  0  0  0  0  0  0  0  0  0  0  0
    8.7260   -0.7500    0.0000 N   0  0  0  0  0  0  0  0  0  0  0  0
    7.1962   -1.2500    0.0000 C   0  0  0  0  0  0  0  0  0  0  0  0
    7.1962   -0.2500    0.0000 C   0  0  0  0  0  0  0  0  0  0  0  0
    8.1424   -1.5547    0.0000 C   0  0  0  0  0  0  0  0  0  0  0  0
    5.4641   -0.2500    0.0000 C   0  0  0  0  0  0  0  0  0  0  0  0
    6.3301    0.2500    0.0000 C   0  0  0  0  0  0  0  0  0  0  0  0
    8.1424    0.0547    0.0000 C   0  0  0  0  0  0  0  0  0  0  0  0
    6.3301   -1.7500    0.0000 C   0  0  0  0  0  0  0  0  0  0  0  0
    5.4641   -1.2500    0.0000 C   0  0  0  0  0  0  0  0  0  0  0  0
    4.5981    0.2500    0.0000 C   0  0  0  0  0  0  0  0  0  0  0  0
    3.7320   -0.2500    0.0000 C   0  0  0  0  0  0  0  0  0  0  0  0
    4.5981    1.2500    0.0000 C   0  0  0  0  0  0  0  0  0  0  0  0
    2.8660    0.2500    0.0000 C   0  0  0  0  0  0  0  0  0  0  0  0
    3.7320    1.7500    0.0000 C   0  0  0  0  0  0  0  0  0  0  0  0
    2.8660    1.2500    0.0000 C   0  0  0  0  0  0  0  0  0  0  0  0
    7.8913   -2.1216    0.0000 H   0  0  0  0  0  0  0  0  0  0  0  0
    8.6798   -1.8640    0.0000 H   0  0  0  0  0  0  0  0  0  0  0  0
    6.3301    0.8700    0.0000 H   0  0  0  0  0  0  0  0  0  0  0  0
    6.3301   -2.3700    0.0000 H   0  0  0  0  0  0  0  0  0  0  0  0
    9.3460   -0.7500    0.0000 H   0  0  0  0  0  0  0  0  0  0  0  0
    4.9272   -1.5600    0.0000 H   0  0  0  0  0  0  0  0  0  0  0  0
    3.7320   -0.8700    0.0000 H   0  0  0  0  0  0  0  0  0  0  0  0
    5.1350    1.5600    0.0000 H   0  0  0  0  0  0  0  0  0  0  0  0
    2.3291   -0.0600    0.0000 H   0  0  0  0  0  0  0  0  0  0  0  0
    3.7320    2.3700    0.0000 H   0  0  0  0  0  0  0  0  0  0  0  0
  1 17  1  0  0  0  0
  2  9  2  0  0  0  0
  3  6  1  0  0  0  0
  3  9  1  0  0  0  0
  3 22  1  0  0  0  0
  4  5  2  0  0  0  0
  4  6  1  0  0  0  0
  4 10  1  0  0  0  0
  5  8  1  0  0  0  0
  5  9  1  0  0  0  0
  6 18  1  0  0  0  0
  6 19  1  0  0  0  0
  7  8  2  0  0  0  0
  7 11  1  0  0  0  0
  7 12  1  0  0  0  0
  8 20  1  0  0  0  0
 10 11  2  0  0  0  0
 10 21  1  0  0  0  0
 11 23  1  0  0  0  0
 12 13  2  0  0  0  0
 12 14  1  0  0  0  0
 13 15  1  0  0  0  0
 13 24  1  0  0  0  0
 14 16  2  0  0  0  0
 14 25  1  0  0  0  0
 15 17  2  0  0  0  0
 15 26  1  0  0  0  0
 16 17  1  0  0  0  0
 16 27  1  0  0  0  0
M  END
> <PUBCHEM_COMPOUND_CID>
49830492

> <PUBCHEM_COMPOUND_CANONICALIZED>
1

> <PUBCHEM_CACTVS_COMPLEXITY>
299

> <PUBCHEM_CACTVS_HBOND_ACCEPTOR>
1

> <PUBCHEM_CACTVS_HBOND_DONOR>
1

> <PUBCHEM_CACTVS_ROTATABLE_BOND>
1

> <PUBCHEM_CACTVS_SUBSKEYS>
AAADccByIAAEAAAAAAAAAAAAAAAAAWAAAAAwYAAAAAAAAFgBQAAAHgIQAAAADALBmCQwAILAAACIAiFSEACCAAAkBQAIiIEIBsgIIDKBlxGEIQhghgCIiYcciMCOxAACAAAQAACIAAQAACAAAAAAAAAAAA==

> <PUBCHEM_IUPAC_OPENEYE_NAME>
6-(4-chlorophenyl)isoindolin-1-one

> <PUBCHEM_IUPAC_CAS_NAME>
6-(4-chlorophenyl)-2,3-dihydroisoindol-1-one

> <PUBCHEM_IUPAC_NAME_MARKUP>
6-(4-chlorophenyl)-2,3-dihydroisoindol-1-one

> <PUBCHEM_IUPAC_NAME>
6-(4-chlorophenyl)-2,3-dihydroisoindol-1-one

> <PUBCHEM_IUPAC_SYSTEMATIC_NAME>
6-(4-chlorophenyl)-2,3-dihydroisoindol-1-one

> <PUBCHEM_IUPAC_TRADITIONAL_NAME>
6-(4-chlorophenyl)isoindolin-1-one

> <PUBCHEM_IUPAC_INCHI>
InChI=1S/C14H10ClNO/c15-12-5-3-9(4-6-12)10-1-2-11-8-16-14(17)13(11)7-10/h1-7H,8H2,(H,16,17)

> <PUBCHEM_IUPAC_INCHIKEY>
MGHVIFHVMLXSSM-UHFFFAOYSA-N

> <PUBCHEM_XLOGP3_AA>
3

> <PUBCHEM_EXACT_MASS>
243.0450916

> <PUBCHEM_MOLECULAR_FORMULA>
C14H10ClNO

> <PUBCHEM_MOLECULAR_WEIGHT>
243.69

> <PUBCHEM_SMILES>
C1C2=C(C=C(C=C2)C3=CC=C(C=C3)Cl)C(=O)N1

> <PUBCHEM_OPENEYE_CAN_SMILES>
C1C2=C(C=C(C=C2)C3=CC=C(C=C3)Cl)C(=O)N1

> <PUBCHEM_OPENEYE_ISO_SMILES>
C1C2=C(C=C(C=C2)C3=CC=C(C=C3)Cl)C(=O)N1

> <PUBCHEM_CACTVS_TPSA>
29.1

> <PUBCHEM_MONOISOTOPIC_WEIGHT>
243.0450916

> <PUBCHEM_TOTAL_CHARGE>
0

> <PUBCHEM_HEAVY_ATOM_COUNT>
17

> <PUBCHEM_ATOM_DEF_STEREO_COUNT>
0

> <PUBCHEM_ATOM_UDEF_STEREO_COUNT>
0

> <PUBCHEM_BOND_DEF_STEREO_COUNT>
0

> <PUBCHEM_BOND_UDEF_STEREO_COUNT>
0

> <PUBCHEM_ISOTOPIC_ATOM_COUNT>
0

> <PUBCHEM_COMPONENT_COUNT>
1

> <PUBCHEM_CACTVS_TAUTO_COUNT>
-1

> <PUBCHEM_COORDINATE_TYPE>
1
5
255

> <PUBCHEM_BONDANNOTATIONS>
10  11  8
12  13  8
12  14  8
13  15  8
14  16  8
15  17  8
16  17  8
4  10  8
4  5  8
5  8  8
7  11  8
7  8  8

$$$$
