52945753
  -OEChem-03202500082D

 55 59  0     0  0  0  0  0  0999 V2000
    2.0000   -1.6038    0.0000 O   0  0  0  0  0  0  0  0  0  0  0  0
    6.3301   -3.1038    0.0000 O   0  0  0  0  0  0  0  0  0  0  0  0
    3.7320   -2.6038    0.0000 N   0  0  0  0  0  0  0  0  0  0  0  0
   11.5263   -1.1038    0.0000 N   0  0  0  0  0  0  0  0  0  0  0  0
   10.6603    0.3962    0.0000 N   0  0  0  0  0  0  0  0  0  0  0  0
   12.4725   -1.4085    0.0000 N   0  0  0  0  0  0  0  0  0  0  0  0
   13.4045    3.0525    0.0000 N   0  0  0  0  0  0  0  0  0  0  0  0
   15.0508    2.5144    0.0000 N   0  0  0  0  0  0  0  0  0  0  0  0
    2.8660   -3.1038    0.0000 C   0  0  0  0  0  0  0  0  0  0  0  0
    3.7320   -1.6038    0.0000 C   0  0  0  0  0  0  0  0  0  0  0  0
    4.5981   -3.1038    0.0000 C   0  0  0  0  0  0  0  0  0  0  0  0
    2.0000   -2.6038    0.0000 C   0  0  0  0  0  0  0  0  0  0  0  0
    2.8660   -1.1038    0.0000 C   0  0  0  0  0  0  0  0  0  0  0  0
    5.4641   -2.6038    0.0000 C   0  0  0  0  0  0  0  0  0  0  0  0
    7.1962   -2.6038    0.0000 C   0  0  0  0  0  0  0  0  0  0  0  0
    8.9282   -1.6038    0.0000 C   0  0  0  0  0  0  0  0  0  0  0  0
    9.7942   -1.1038    0.0000 C   0  0  0  0  0  0  0  0  0  0  0  0
   11.5263   -0.1038    0.0000 C   0  0  0  0  0  0  0  0  0  0  0  0
   12.4725    0.2010    0.0000 C   0  0  0  0  0  0  0  0  0  0  0  0
   10.6603   -1.6038    0.0000 C   0  0  0  0  0  0  0  0  0  0  0  0
    8.0622   -3.1038    0.0000 C   0  0  0  0  0  0  0  0  0  0  0  0
    7.1962   -1.6038    0.0000 C   0  0  0  0  0  0  0  0  0  0  0  0
    8.9282   -2.6038    0.0000 C   0  0  0  0  0  0  0  0  0  0  0  0
    8.0622   -1.1038    0.0000 C   0  0  0  0  0  0  0  0  0  0  0  0
   12.7832    1.1515    0.0000 C   0  0  0  0  0  0  0  0  0  0  0  0
    9.7942   -0.1038    0.0000 C   0  0  0  0  0  0  0  0  0  0  0  0
   13.0561   -0.6038    0.0000 C   0  0  0  0  0  0  0  0  0  0  0  0
   13.7617    1.3577    0.0000 C   0  0  0  0  0  0  0  0  0  0  0  0
   12.1153    1.8958    0.0000 C   0  0  0  0  0  0  0  0  0  0  0  0
   14.0723    2.3082    0.0000 C   0  0  0  0  0  0  0  0  0  0  0  0
   12.4260    2.8463    0.0000 C   0  0  0  0  0  0  0  0  0  0  0  0
    2.4675   -3.5787    0.0000 H   0  0  0  0  0  0  0  0  0  0  0  0
    3.2646   -3.5787    0.0000 H   0  0  0  0  0  0  0  0  0  0  0  0
    4.3426   -1.7114    0.0000 H   0  0  0  0  0  0  0  0  0  0  0  0
    3.9441   -1.0212    0.0000 H   0  0  0  0  0  0  0  0  0  0  0  0
    4.1996   -3.5787    0.0000 H   0  0  0  0  0  0  0  0  0  0  0  0
    4.9966   -3.5787    0.0000 H   0  0  0  0  0  0  0  0  0  0  0  0
    1.3894   -2.4961    0.0000 H   0  0  0  0  0  0  0  0  0  0  0  0
    1.7880   -3.1864    0.0000 H   0  0  0  0  0  0  0  0  0  0  0  0
    3.2646   -0.6288    0.0000 H   0  0  0  0  0  0  0  0  0  0  0  0
    2.4675   -0.6288    0.0000 H   0  0  0  0  0  0  0  0  0  0  0  0
    5.8626   -2.1288    0.0000 H   0  0  0  0  0  0  0  0  0  0  0  0
    5.0656   -2.1288    0.0000 H   0  0  0  0  0  0  0  0  0  0  0  0
   10.6603   -2.2238    0.0000 H   0  0  0  0  0  0  0  0  0  0  0  0
    8.0622   -3.7238    0.0000 H   0  0  0  0  0  0  0  0  0  0  0  0
    6.6592   -1.2938    0.0000 H   0  0  0  0  0  0  0  0  0  0  0  0
    9.4651   -2.9138    0.0000 H   0  0  0  0  0  0  0  0  0  0  0  0
    8.0622   -0.4838    0.0000 H   0  0  0  0  0  0  0  0  0  0  0  0
    9.2573    0.2062    0.0000 H   0  0  0  0  0  0  0  0  0  0  0  0
   13.6761   -0.6038    0.0000 H   0  0  0  0  0  0  0  0  0  0  0  0
   14.1757    0.8962    0.0000 H   0  0  0  0  0  0  0  0  0  0  0  0
   11.5086    1.7679    0.0000 H   0  0  0  0  0  0  0  0  0  0  0  0
   12.0119    3.3078    0.0000 H   0  0  0  0  0  0  0  0  0  0  0  0
   15.2434    3.1038    0.0000 H   0  0  0  0  0  0  0  0  0  0  0  0
   15.4649    2.0530    0.0000 H   0  0  0  0  0  0  0  0  0  0  0  0
  1 12  1  0  0  0  0
  1 13  1  0  0  0  0
  2 14  1  0  0  0  0
  2 15  1  0  0  0  0
  3  9  1  0  0  0  0
  3 10  1  0  0  0  0
  3 11  1  0  0  0  0
  4  6  1  0  0  0  0
  4 18  1  0  0  0  0
  4 20  1  0  0  0  0
  5 18  1  0  0  0  0
  5 26  2  0  0  0  0
  6 27  2  0  0  0  0
  7 30  2  0  0  0  0
  7 31  1  0  0  0  0
  8 30  1  0  0  0  0
  8 54  1  0  0  0  0
  8 55  1  0  0  0  0
  9 12  1  0  0  0  0
  9 32  1  0  0  0  0
  9 33  1  0  0  0  0
 10 13  1  0  0  0  0
 10 34  1  0  0  0  0
 10 35  1  0  0  0  0
 11 14  1  0  0  0  0
 11 36  1  0  0  0  0
 11 37  1  0  0  0  0
 12 38  1  0  0  0  0
 12 39  1  0  0  0  0
 13 40  1  0  0  0  0
 13 41  1  0  0  0  0
 14 42  1  0  0  0  0
 14 43  1  0  0  0  0
 15 21  2  0  0  0  0
 15 22  1  0  0  0  0
 16 17  1  0  0  0  0
 16 23  2  0  0  0  0
 16 24  1  0  0  0  0
 17 20  2  0  0  0  0
 17 26  1  0  0  0  0
 18 19  2  0  0  0  0
 19 25  1  0  0  0  0
 19 27  1  0  0  0  0
 20 44  1  0  0  0  0
 21 23  1  0  0  0  0
 21 45  1  0  0  0  0
 22 24  2  0  0  0  0
 22 46  1  0  0  0  0
 23 47  1  0  0  0  0
 24 48  1  0  0  0  0
 25 28  2  0  0  0  0
 25 29  1  0  0  0  0
 26 49  1  0  0  0  0
 27 50  1  0  0  0  0
 28 30  1  0  0  0  0
 28 51  1  0  0  0  0
 29 31  2  0  0  0  0
 29 52  1  0  0  0  0
 31 53  1  0  0  0  0
M  END
> <PUBCHEM_COMPOUND_CID>
52945753

> <PUBCHEM_COMPOUND_CANONICALIZED>
1

> <PUBCHEM_CACTVS_COMPLEXITY>
554

> <PUBCHEM_CACTVS_HBOND_ACCEPTOR>
7

> <PUBCHEM_CACTVS_HBOND_DONOR>
1

> <PUBCHEM_CACTVS_ROTATABLE_BOND>
6

> <PUBCHEM_CACTVS_SUBSKEYS>
AAADceB7sAAAAAAAAAAAAAAAAAAAAWAAAAA8WLEAAAAAAFgB/AAAHgAYAAAADAThmwY9tp9IFACiAjJnZACSjCsxoqAd2CA+bJiOLuLE+duHvCjs2BPY6CeQwNAOoAAAAAAAAABAAAAAAAAAAAAAAAAAAA==

> <PUBCHEM_IUPAC_OPENEYE_NAME>
4-[6-[4-(2-morpholinoethoxy)phenyl]pyrazolo[1,5-a]pyrimidin-3-yl]pyridin-2-amine

> <PUBCHEM_IUPAC_CAS_NAME>
4-[6-[4-[2-(4-morpholinyl)ethoxy]phenyl]-3-pyrazolo[1,5-a]pyrimidinyl]-2-pyridinamine

> <PUBCHEM_IUPAC_NAME_MARKUP>
4-[6-[4-(2-morpholin-4-ylethoxy)phenyl]pyrazolo[1,5-a]pyrimidin-3-yl]pyridin-2-amine

> <PUBCHEM_IUPAC_NAME>
4-[6-[4-(2-morpholin-4-ylethoxy)phenyl]pyrazolo[1,5-a]pyrimidin-3-yl]pyridin-2-amine

> <PUBCHEM_IUPAC_SYSTEMATIC_NAME>
4-[6-[4-(2-morpholin-4-ylethoxy)phenyl]pyrazolo[1,5-a]pyrimidin-3-yl]pyridin-2-amine

> <PUBCHEM_IUPAC_TRADITIONAL_NAME>
[4-[6-[4-(2-morpholinoethoxy)phenyl]pyrazolo[1,5-a]pyrimidin-3-yl]-2-pyridyl]amine

> <PUBCHEM_IUPAC_INCHI>
InChI=1S/C23H24N6O2/c24-22-13-18(5-6-25-22)21-15-27-29-16-19(14-26-23(21)29)17-1-3-20(4-2-17)31-12-9-28-7-10-30-11-8-28/h1-6,13-16H,7-12H2,(H2,24,25)

> <PUBCHEM_IUPAC_INCHIKEY>
HEPDAJRNJBNJAE-UHFFFAOYSA-N

> <PUBCHEM_XLOGP3_AA>
1.8

> <PUBCHEM_EXACT_MASS>
416.19607403

> <PUBCHEM_MOLECULAR_FORMULA>
C23H24N6O2

> <PUBCHEM_MOLECULAR_WEIGHT>
416.5

> <PUBCHEM_SMILES>
C1COCCN1CCOC2=CC=C(C=C2)C3=CN4C(=C(C=N4)C5=CC(=NC=C5)N)N=C3

> <PUBCHEM_OPENEYE_CAN_SMILES>
C1COCCN1CCOC2=CC=C(C=C2)C3=CN4C(=C(C=N4)C5=CC(=NC=C5)N)N=C3

> <PUBCHEM_OPENEYE_ISO_SMILES>
C1COCCN1CCOC2=CC=C(C=C2)C3=CN4C(=C(C=N4)C5=CC(=NC=C5)N)N=C3

> <PUBCHEM_CACTVS_TPSA>
90.8

> <PUBCHEM_MONOISOTOPIC_WEIGHT>
416.19607403

> <PUBCHEM_TOTAL_CHARGE>
0

> <PUBCHEM_HEAVY_ATOM_COUNT>
31

> <PUBCHEM_ATOM_DEF_STEREO_COUNT>
0

> <PUBCHEM_ATOM_UDEF_STEREO_COUNT>
0

> <PUBCHEM_BOND_DEF_STEREO_COUNT>
0

> <PUBCHEM_BOND_UDEF_STEREO_COUNT>
0

> <PUBCHEM_ISOTOPIC_ATOM_COUNT>
0

> <PUBCHEM_COMPONENT_COUNT>
1

> <PUBCHEM_CACTVS_TAUTO_COUNT>
-1

> <PUBCHEM_COORDINATE_TYPE>
1
5
255

> <PUBCHEM_BONDANNOTATIONS>
15  21  8
15  22  8
16  23  8
16  24  8
17  20  8
17  26  8
18  19  8
19  27  8
21  23  8
22  24  8
25  28  8
25  29  8
28  30  8
29  31  8
4  18  8
4  20  8
4  6  8
5  18  8
5  26  8
6  27  8
7  30  8
7  31  8

$$$$
