49830560
  -OEChem-03202502592D

 44 46  0     0  0  0  0  0  0999 V2000
    8.7988   -1.5600    0.0000 O   0  0  0  0  0  0  0  0  0  0  0  0
    4.2690    2.6720    0.0000 O   0  0  0  0  0  0  0  0  0  0  0  0
    5.2152   -0.6327    0.0000 N   0  0  0  0  0  0  0  0  0  0  0  0
    5.2152    0.9768    0.0000 N   0  0  0  0  0  0  0  0  0  0  0  0
   11.2988   -2.4260    0.0000 N   0  0  0  0  0  0  0  0  0  0  0  0
    2.5369    2.6720    0.0000 N   0  0  0  0  0  0  0  0  0  0  0  0
    4.2690   -0.3279    0.0000 C   0  0  0  0  0  0  0  0  0  0  0  0
    5.7988    0.1721    0.0000 C   0  0  0  0  0  0  0  0  0  0  0  0
    4.2690    0.6721    0.0000 C   0  0  0  0  0  0  0  0  0  0  0  0
    6.7988    0.1721    0.0000 C   0  0  0  0  0  0  0  0  0  0  0  0
   10.2988   -2.4260    0.0000 C   0  0  0  0  0  0  0  0  0  0  0  0
    3.4030    1.1720    0.0000 C   0  0  0  0  0  0  0  0  0  0  0  0
    9.7988   -1.5600    0.0000 C   0  0  0  0  0  0  0  0  0  0  0  0
    7.2988   -0.6940    0.0000 C   0  0  0  0  0  0  0  0  0  0  0  0
    8.2988   -0.6940    0.0000 C   0  0  0  0  0  0  0  0  0  0  0  0
    3.4030   -0.8279    0.0000 C   0  0  0  0  0  0  0  0  0  0  0  0
    7.2988    1.0381    0.0000 C   0  0  0  0  0  0  0  0  0  0  0  0
    2.5369    0.6721    0.0000 C   0  0  0  0  0  0  0  0  0  0  0  0
    2.5369   -0.3279    0.0000 C   0  0  0  0  0  0  0  0  0  0  0  0
    8.7988    0.1721    0.0000 C   0  0  0  0  0  0  0  0  0  0  0  0
    8.2988    1.0381    0.0000 C   0  0  0  0  0  0  0  0  0  0  0  0
   11.7988   -3.2920    0.0000 C   0  0  0  0  0  0  0  0  0  0  0  0
   11.7988   -1.5600    0.0000 C   0  0  0  0  0  0  0  0  0  0  0  0
    3.4030    2.1720    0.0000 C   0  0  0  0  0  0  0  0  0  0  0  0
    5.4078   -1.2220    0.0000 H   0  0  0  0  0  0  0  0  0  0  0  0
    9.7162   -2.6381    0.0000 H   0  0  0  0  0  0  0  0  0  0  0  0
   10.4065   -3.0366    0.0000 H   0  0  0  0  0  0  0  0  0  0  0  0
   10.3814   -1.3480    0.0000 H   0  0  0  0  0  0  0  0  0  0  0  0
    9.6912   -0.9494    0.0000 H   0  0  0  0  0  0  0  0  0  0  0  0
    6.9888   -1.2309    0.0000 H   0  0  0  0  0  0  0  0  0  0  0  0
    3.4030   -1.4480    0.0000 H   0  0  0  0  0  0  0  0  0  0  0  0
    6.9888    1.5750    0.0000 H   0  0  0  0  0  0  0  0  0  0  0  0
    2.0000    0.9821    0.0000 H   0  0  0  0  0  0  0  0  0  0  0  0
    2.0000   -0.6379    0.0000 H   0  0  0  0  0  0  0  0  0  0  0  0
    9.4188    0.1721    0.0000 H   0  0  0  0  0  0  0  0  0  0  0  0
    8.6088    1.5750    0.0000 H   0  0  0  0  0  0  0  0  0  0  0  0
   11.2619   -3.6020    0.0000 H   0  0  0  0  0  0  0  0  0  0  0  0
   12.1088   -3.8290    0.0000 H   0  0  0  0  0  0  0  0  0  0  0  0
   12.3358   -2.9820    0.0000 H   0  0  0  0  0  0  0  0  0  0  0  0
   12.3358   -1.8700    0.0000 H   0  0  0  0  0  0  0  0  0  0  0  0
   12.1088   -1.0231    0.0000 H   0  0  0  0  0  0  0  0  0  0  0  0
   11.2619   -1.2500    0.0000 H   0  0  0  0  0  0  0  0  0  0  0  0
    2.5369    3.2920    0.0000 H   0  0  0  0  0  0  0  0  0  0  0  0
    2.0000    2.3620    0.0000 H   0  0  0  0  0  0  0  0  0  0  0  0
  1 13  1  0  0  0  0
  1 15  1  0  0  0  0
  2 24  2  0  0  0  0
  3  7  1  0  0  0  0
  3  8  1  0  0  0  0
  3 25  1  0  0  0  0
  4  8  2  0  0  0  0
  4  9  1  0  0  0  0
  5 11  1  0  0  0  0
  5 22  1  0  0  0  0
  5 23  1  0  0  0  0
  6 24  1  0  0  0  0
  6 43  1  0  0  0  0
  6 44  1  0  0  0  0
  7  9  1  0  0  0  0
  7 16  2  0  0  0  0
  8 10  1  0  0  0  0
  9 12  2  0  0  0  0
 10 14  2  0  0  0  0
 10 17  1  0  0  0  0
 11 13  1  0  0  0  0
 11 26  1  0  0  0  0
 11 27  1  0  0  0  0
 12 18  1  0  0  0  0
 12 24  1  0  0  0  0
 13 28  1  0  0  0  0
 13 29  1  0  0  0  0
 14 15  1  0  0  0  0
 14 30  1  0  0  0  0
 15 20  2  0  0  0  0
 16 19  1  0  0  0  0
 16 31  1  0  0  0  0
 17 21  2  0  0  0  0
 17 32  1  0  0  0  0
 18 19  2  0  0  0  0
 18 33  1  0  0  0  0
 19 34  1  0  0  0  0
 20 21  1  0  0  0  0
 20 35  1  0  0  0  0
 21 36  1  0  0  0  0
 22 37  1  0  0  0  0
 22 38  1  0  0  0  0
 22 39  1  0  0  0  0
 23 40  1  0  0  0  0
 23 41  1  0  0  0  0
 23 42  1  0  0  0  0
M  END
> <PUBCHEM_COMPOUND_CID>
49830560

> <PUBCHEM_COMPOUND_CANONICALIZED>
1

> <PUBCHEM_CACTVS_COMPLEXITY>
431

> <PUBCHEM_CACTVS_HBOND_ACCEPTOR>
4

> <PUBCHEM_CACTVS_HBOND_DONOR>
2

> <PUBCHEM_CACTVS_ROTATABLE_BOND>
6

> <PUBCHEM_CACTVS_SUBSKEYS>
AAADceB7sAAAAAAAAAAAAAAAAAAAAWAAAAAwYAAAAAAAAFgB9AAAHgAQAAAADAzhnwYz1rfJlACoAydydACCiC2lMqAJmSE+fNiObrrE/ZuXOajs0BPY6ee8yBCOAAABQAACACAAAAKAAAQAQAAAAAAAAA==

> <PUBCHEM_IUPAC_OPENEYE_NAME>
2-[3-[2-(dimethylamino)ethoxy]phenyl]-1H-benzimidazole-4-carboxamide

> <PUBCHEM_IUPAC_CAS_NAME>
2-[3-[2-(dimethylamino)ethoxy]phenyl]-1H-benzimidazole-4-carboxamide

> <PUBCHEM_IUPAC_NAME_MARKUP>
2-[3-[2-(dimethylamino)ethoxy]phenyl]-1<I>H</I>-benzimidazole-4-carboxamide

> <PUBCHEM_IUPAC_NAME>
2-[3-[2-(dimethylamino)ethoxy]phenyl]-1H-benzimidazole-4-carboxamide

> <PUBCHEM_IUPAC_SYSTEMATIC_NAME>
2-[3-[2-(dimethylamino)ethoxy]phenyl]-1H-benzimidazole-4-carboxamide

> <PUBCHEM_IUPAC_TRADITIONAL_NAME>
2-[3-[2-(dimethylamino)ethoxy]phenyl]-1H-benzimidazole-4-carboxamide

> <PUBCHEM_IUPAC_INCHI>
InChI=1S/C18H20N4O2/c1-22(2)9-10-24-13-6-3-5-12(11-13)18-20-15-8-4-7-14(17(19)23)16(15)21-18/h3-8,11H,9-10H2,1-2H3,(H2,19,23)(H,20,21)

> <PUBCHEM_IUPAC_INCHIKEY>
DNWXPSYLVCYKCN-UHFFFAOYSA-N

> <PUBCHEM_XLOGP3_AA>
2

> <PUBCHEM_EXACT_MASS>
324.15862589

> <PUBCHEM_MOLECULAR_FORMULA>
C18H20N4O2

> <PUBCHEM_MOLECULAR_WEIGHT>
324.4

> <PUBCHEM_SMILES>
CN(C)CCOC1=CC=CC(=C1)C2=NC3=C(C=CC=C3N2)C(=O)N

> <PUBCHEM_OPENEYE_CAN_SMILES>
CN(C)CCOC1=CC=CC(=C1)C2=NC3=C(C=CC=C3N2)C(=O)N

> <PUBCHEM_OPENEYE_ISO_SMILES>
CN(C)CCOC1=CC=CC(=C1)C2=NC3=C(C=CC=C3N2)C(=O)N

> <PUBCHEM_CACTVS_TPSA>
84.2

> <PUBCHEM_MONOISOTOPIC_WEIGHT>
324.15862589

> <PUBCHEM_TOTAL_CHARGE>
0

> <PUBCHEM_HEAVY_ATOM_COUNT>
24

> <PUBCHEM_ATOM_DEF_STEREO_COUNT>
0

> <PUBCHEM_ATOM_UDEF_STEREO_COUNT>
0

> <PUBCHEM_BOND_DEF_STEREO_COUNT>
0

> <PUBCHEM_BOND_UDEF_STEREO_COUNT>
0

> <PUBCHEM_ISOTOPIC_ATOM_COUNT>
0

> <PUBCHEM_COMPONENT_COUNT>
1

> <PUBCHEM_CACTVS_TAUTO_COUNT>
-1

> <PUBCHEM_COORDINATE_TYPE>
1
5
255

> <PUBCHEM_BONDANNOTATIONS>
10  14  8
10  17  8
12  18  8
14  15  8
15  20  8
16  19  8
17  21  8
18  19  8
20  21  8
3  7  8
3  8  8
4  8  8
4  9  8
7  16  8
7  9  8
9  12  8

$$$$
