53384644
  -OEChem-03202500402D

 69 71  0     0  0  0  0  0  0999 V2000
    4.8435   -4.0030    0.0000 Cl  0  0  0  0  0  0  0  0  0  0  0  0
    4.4276   -5.9594    0.0000 Cl  0  0  0  0  0  0  0  0  0  0  0  0
    4.4890   -1.2765    0.0000 S   0  0  0  0  0  0  0  0  0  0  0  0
    5.5039    4.5175    0.0000 O   0  0  0  0  0  0  0  0  0  0  0  0
    7.3038   -0.0741    0.0000 O   0  0  0  0  0  0  0  0  0  0  0  0
    5.0514   -3.0249    0.0000 O   0  0  0  0  0  0  0  0  0  0  0  0
    6.4378    1.4259    0.0000 N   0  0  0  0  0  0  0  0  0  0  0  0
    6.9378    3.6166    0.0000 N   0  0  0  0  0  0  0  0  0  0  0  0
    8.8027    5.4932    0.0000 N   0  0  0  0  0  0  0  0  0  0  0  0
    6.2103   -1.7377    0.0000 N   0  0  0  0  0  0  0  0  0  0  0  0
    6.7456   -3.3850    0.0000 N   0  0  0  0  0  0  0  0  0  0  0  0
    7.3387    1.8598    0.0000 C   0  0  0  0  0  0  0  0  0  0  0  0
    7.5612    2.8347    0.0000 C   0  0  0  0  0  0  0  0  0  0  0  0
    5.5368    1.8598    0.0000 C   0  0  0  0  0  0  0  0  0  0  0  0
    2.9945   -0.3060    0.0000 C   0  0  0  0  0  0  0  0  0  0  0  0
    5.3143    2.8347    0.0000 C   0  0  0  0  0  0  0  0  0  0  0  0
    7.3716    4.5175    0.0000 C   0  0  0  0  0  0  0  0  0  0  0  0
    5.9378    3.6166    0.0000 C   0  0  0  0  0  0  0  0  0  0  0  0
    3.9890   -0.4105    0.0000 C   0  0  0  0  0  0  0  0  0  0  0  0
    6.4378    0.4259    0.0000 C   0  0  0  0  0  0  0  0  0  0  0  0
    5.5717   -0.0741    0.0000 C   0  0  0  0  0  0  0  0  0  0  0  0
    8.3688    4.5922    0.0000 C   0  0  0  0  0  0  0  0  0  0  0  0
    4.6582    0.3326    0.0000 C   0  0  0  0  0  0  0  0  0  0  0  0
    2.0000   -0.2014    0.0000 C   0  0  0  0  0  0  0  0  0  0  0  0
    2.8900   -1.3005    0.0000 C   0  0  0  0  0  0  0  0  0  0  0  0
    3.0990    0.6886    0.0000 C   0  0  0  0  0  0  0  0  0  0  0  0
    5.4672   -1.0686    0.0000 C   0  0  0  0  0  0  0  0  0  0  0  0
    9.7999    5.5680    0.0000 C   0  0  0  0  0  0  0  0  0  0  0  0
    8.2394    6.3195    0.0000 C   0  0  0  0  0  0  0  0  0  0  0  0
    6.0024   -2.7159    0.0000 C   0  0  0  0  0  0  0  0  0  0  0  0
    6.5377   -4.3632    0.0000 C   0  0  0  0  0  0  0  0  0  0  0  0
    5.5866   -4.6722    0.0000 C   0  0  0  0  0  0  0  0  0  0  0  0
    7.2808   -5.0323    0.0000 C   0  0  0  0  0  0  0  0  0  0  0  0
    5.3787   -5.6503    0.0000 C   0  0  0  0  0  0  0  0  0  0  0  0
    7.0729   -6.0104    0.0000 C   0  0  0  0  0  0  0  0  0  0  0  0
    6.1218   -6.3195    0.0000 C   0  0  0  0  0  0  0  0  0  0  0  0
    7.4767    1.2553    0.0000 H   0  0  0  0  0  0  0  0  0  0  0  0
    7.9587    1.8598    0.0000 H   0  0  0  0  0  0  0  0  0  0  0  0
    8.1198    2.5657    0.0000 H   0  0  0  0  0  0  0  0  0  0  0  0
    7.9478    3.3195    0.0000 H   0  0  0  0  0  0  0  0  0  0  0  0
    4.9168    1.8598    0.0000 H   0  0  0  0  0  0  0  0  0  0  0  0
    5.3988    1.2553    0.0000 H   0  0  0  0  0  0  0  0  0  0  0  0
    4.9277    3.3195    0.0000 H   0  0  0  0  0  0  0  0  0  0  0  0
    4.7556    2.5657    0.0000 H   0  0  0  0  0  0  0  0  0  0  0  0
    7.4334    5.1344    0.0000 H   0  0  0  0  0  0  0  0  0  0  0  0
    6.7748    4.6854    0.0000 H   0  0  0  0  0  0  0  0  0  0  0  0
    8.3071    3.9753    0.0000 H   0  0  0  0  0  0  0  0  0  0  0  0
    8.9657    4.4243    0.0000 H   0  0  0  0  0  0  0  0  0  0  0  0
    4.5293    0.9391    0.0000 H   0  0  0  0  0  0  0  0  0  0  0  0
    2.0648    0.4152    0.0000 H   0  0  0  0  0  0  0  0  0  0  0  0
    1.3834   -0.1366    0.0000 H   0  0  0  0  0  0  0  0  0  0  0  0
    1.9352   -0.8180    0.0000 H   0  0  0  0  0  0  0  0  0  0  0  0
    2.2734   -1.2357    0.0000 H   0  0  0  0  0  0  0  0  0  0  0  0
    2.8252   -1.9171    0.0000 H   0  0  0  0  0  0  0  0  0  0  0  0
    3.5066   -1.3653    0.0000 H   0  0  0  0  0  0  0  0  0  0  0  0
    3.7156    0.6237    0.0000 H   0  0  0  0  0  0  0  0  0  0  0  0
    3.1639    1.3052    0.0000 H   0  0  0  0  0  0  0  0  0  0  0  0
    2.4824    0.7534    0.0000 H   0  0  0  0  0  0  0  0  0  0  0  0
    6.8000   -1.5462    0.0000 H   0  0  0  0  0  0  0  0  0  0  0  0
    9.8462    4.9497    0.0000 H   0  0  0  0  0  0  0  0  0  0  0  0
   10.4182    5.6143    0.0000 H   0  0  0  0  0  0  0  0  0  0  0  0
    9.7536    6.1862    0.0000 H   0  0  0  0  0  0  0  0  0  0  0  0
    8.7517    6.6687    0.0000 H   0  0  0  0  0  0  0  0  0  0  0  0
    7.8901    6.8317    0.0000 H   0  0  0  0  0  0  0  0  0  0  0  0
    7.7271    5.9702    0.0000 H   0  0  0  0  0  0  0  0  0  0  0  0
    7.3352   -3.1934    0.0000 H   0  0  0  0  0  0  0  0  0  0  0  0
    7.8705   -4.8407    0.0000 H   0  0  0  0  0  0  0  0  0  0  0  0
    7.5336   -6.4253    0.0000 H   0  0  0  0  0  0  0  0  0  0  0  0
    5.9929   -6.9259    0.0000 H   0  0  0  0  0  0  0  0  0  0  0  0
  1 32  1  0  0  0  0
  2 34  1  0  0  0  0
  3 19  1  0  0  0  0
  3 27  1  0  0  0  0
  4 18  2  0  0  0  0
  5 20  2  0  0  0  0
  6 30  2  0  0  0  0
  7 12  1  0  0  0  0
  7 14  1  0  0  0  0
  7 20  1  0  0  0  0
  8 13  1  0  0  0  0
  8 17  1  0  0  0  0
  8 18  1  0  0  0  0
  9 22  1  0  0  0  0
  9 28  1  0  0  0  0
  9 29  1  0  0  0  0
 10 27  1  0  0  0  0
 10 30  1  0  0  0  0
 10 59  1  0  0  0  0
 11 30  1  0  0  0  0
 11 31  1  0  0  0  0
 11 66  1  0  0  0  0
 12 13  1  0  0  0  0
 12 37  1  0  0  0  0
 12 38  1  0  0  0  0
 13 39  1  0  0  0  0
 13 40  1  0  0  0  0
 14 16  1  0  0  0  0
 14 41  1  0  0  0  0
 14 42  1  0  0  0  0
 15 19  1  0  0  0  0
 15 24  1  0  0  0  0
 15 25  1  0  0  0  0
 15 26  1  0  0  0  0
 16 18  1  0  0  0  0
 16 43  1  0  0  0  0
 16 44  1  0  0  0  0
 17 22  1  0  0  0  0
 17 45  1  0  0  0  0
 17 46  1  0  0  0  0
 19 23  2  0  0  0  0
 20 21  1  0  0  0  0
 21 23  1  0  0  0  0
 21 27  2  0  0  0  0
 22 47  1  0  0  0  0
 22 48  1  0  0  0  0
 23 49  1  0  0  0  0
 24 50  1  0  0  0  0
 24 51  1  0  0  0  0
 24 52  1  0  0  0  0
 25 53  1  0  0  0  0
 25 54  1  0  0  0  0
 25 55  1  0  0  0  0
 26 56  1  0  0  0  0
 26 57  1  0  0  0  0
 26 58  1  0  0  0  0
 28 60  1  0  0  0  0
 28 61  1  0  0  0  0
 28 62  1  0  0  0  0
 29 63  1  0  0  0  0
 29 64  1  0  0  0  0
 29 65  1  0  0  0  0
 31 32  2  0  0  0  0
 31 33  1  0  0  0  0
 32 34  1  0  0  0  0
 33 35  2  0  0  0  0
 33 67  1  0  0  0  0
 34 36  2  0  0  0  0
 35 36  1  0  0  0  0
 35 68  1  0  0  0  0
 36 69  1  0  0  0  0
M  END
> <PUBCHEM_COMPOUND_CID>
53384644

> <PUBCHEM_COMPOUND_CANONICALIZED>
1

> <PUBCHEM_CACTVS_COMPLEXITY>
796

> <PUBCHEM_CACTVS_HBOND_ACCEPTOR>
5

> <PUBCHEM_CACTVS_HBOND_DONOR>
2

> <PUBCHEM_CACTVS_ROTATABLE_BOND>
7

> <PUBCHEM_CACTVS_SUBSKEYS>
AAADcfB7sABGAAAAAAAAAAAAAAAAASAAAAAwAAAABYAAAAABwAAAHgYQAAAADgrB2CQzwYPAAAiMAiVSUACDAIBlDxlIilkIZsiIYDrh15HUIYholgLoyecYCAANAAAAAAIAABQAAAAABAAAKAAAAAAAAA==

> <PUBCHEM_IUPAC_OPENEYE_NAME>
1-[5-tert-butyl-3-[4-[2-(dimethylamino)ethyl]-5-oxo-1,4-diazepane-1-carbonyl]-2-thienyl]-3-(2,3-dichlorophenyl)urea

> <PUBCHEM_IUPAC_CAS_NAME>
1-[5-tert-butyl-3-[[4-[2-(dimethylamino)ethyl]-5-oxo-1,4-diazepan-1-yl]-oxomethyl]-2-thiophenyl]-3-(2,3-dichlorophenyl)urea

> <PUBCHEM_IUPAC_NAME_MARKUP>
1-[5-<I>tert</I>-butyl-3-[4-[2-(dimethylamino)ethyl]-5-oxo-1,4-diazepane-1-carbonyl]thiophen-2-yl]-3-(2,3-dichlorophenyl)urea

> <PUBCHEM_IUPAC_NAME>
1-[5-tert-butyl-3-[4-[2-(dimethylamino)ethyl]-5-oxo-1,4-diazepane-1-carbonyl]thiophen-2-yl]-3-(2,3-dichlorophenyl)urea

> <PUBCHEM_IUPAC_SYSTEMATIC_NAME>
1-[2,3-bis(chloranyl)phenyl]-3-[5-tert-butyl-3-[[4-[2-(dimethylamino)ethyl]-5-oxidanylidene-1,4-diazepan-1-yl]carbonyl]thiophen-2-yl]urea

> <PUBCHEM_IUPAC_TRADITIONAL_NAME>
1-[5-tert-butyl-3-[4-[2-(dimethylamino)ethyl]-5-keto-1,4-diazepane-1-carbonyl]-2-thienyl]-3-(2,3-dichlorophenyl)urea

> <PUBCHEM_IUPAC_INCHI>
InChI=1S/C25H33Cl2N5O3S/c1-25(2,3)19-15-16(22(36-19)29-24(35)28-18-8-6-7-17(26)21(18)27)23(34)32-10-9-20(33)31(13-14-32)12-11-30(4)5/h6-8,15H,9-14H2,1-5H3,(H2,28,29,35)

> <PUBCHEM_IUPAC_INCHIKEY>
SIUIQMQVKUUQQF-UHFFFAOYSA-N

> <PUBCHEM_XLOGP3_AA>
4.7

> <PUBCHEM_EXACT_MASS>
553.1681165

> <PUBCHEM_MOLECULAR_FORMULA>
C25H33Cl2N5O3S

> <PUBCHEM_MOLECULAR_WEIGHT>
554.5

> <PUBCHEM_SMILES>
CC(C)(C)C1=CC(=C(S1)NC(=O)NC2=C(C(=CC=C2)Cl)Cl)C(=O)N3CCC(=O)N(CC3)CCN(C)C

> <PUBCHEM_OPENEYE_CAN_SMILES>
CC(C)(C)C1=CC(=C(S1)NC(=O)NC2=C(C(=CC=C2)Cl)Cl)C(=O)N3CCC(=O)N(CC3)CCN(C)C

> <PUBCHEM_OPENEYE_ISO_SMILES>
CC(C)(C)C1=CC(=C(S1)NC(=O)NC2=C(C(=CC=C2)Cl)Cl)C(=O)N3CCC(=O)N(CC3)CCN(C)C

> <PUBCHEM_CACTVS_TPSA>
113

> <PUBCHEM_MONOISOTOPIC_WEIGHT>
553.1681165

> <PUBCHEM_TOTAL_CHARGE>
0

> <PUBCHEM_HEAVY_ATOM_COUNT>
36

> <PUBCHEM_ATOM_DEF_STEREO_COUNT>
0

> <PUBCHEM_ATOM_UDEF_STEREO_COUNT>
0

> <PUBCHEM_BOND_DEF_STEREO_COUNT>
0

> <PUBCHEM_BOND_UDEF_STEREO_COUNT>
0

> <PUBCHEM_ISOTOPIC_ATOM_COUNT>
0

> <PUBCHEM_COMPONENT_COUNT>
1

> <PUBCHEM_CACTVS_TAUTO_COUNT>
-1

> <PUBCHEM_COORDINATE_TYPE>
1
5
255

> <PUBCHEM_BONDANNOTATIONS>
19  23  8
21  23  8
21  27  8
3  19  8
3  27  8
31  32  8
31  33  8
32  34  8
33  35  8
34  36  8
35  36  8

$$$$
