23401001
  -OEChem-03202507062D

 45 47  0     0  0  0  0  0  0999 V2000
    8.6793   -1.3047    0.0000 S   0  0  0  0  0  0  0  0  0  0  0  0
    2.5369   -3.0000    0.0000 O   0  0  0  0  0  0  0  0  0  0  0  0
   10.7629    0.3660    0.0000 O   0  0  0  0  0  0  0  0  0  0  0  0
    5.1350   -1.5000    0.0000 N   0  0  0  0  0  0  0  0  0  0  0  0
    6.8671   -1.5000    0.0000 N   0  0  0  0  0  0  0  0  0  0  0  0
    8.9900    1.2552    0.0000 N   0  0  0  0  0  0  0  0  0  0  0  0
   10.7629   -1.3660    0.0000 N   0  0  0  0  0  0  0  0  0  0  0  0
    3.4030   -2.5000    0.0000 C   0  0  0  0  0  0  0  0  0  0  0  0
    3.4030   -1.5000    0.0000 C   0  0  0  0  0  0  0  0  0  0  0  0
    4.2690   -3.0000    0.0000 C   0  0  0  0  0  0  0  0  0  0  0  0
    4.2690   -1.0000    0.0000 C   0  0  0  0  0  0  0  0  0  0  0  0
    5.1350   -2.5000    0.0000 C   0  0  0  0  0  0  0  0  0  0  0  0
    6.0010   -1.0000    0.0000 C   0  0  0  0  0  0  0  0  0  0  0  0
    6.8671    0.5000    0.0000 C   0  0  0  0  0  0  0  0  0  0  0  0
    6.0010    0.0000    0.0000 C   0  0  0  0  0  0  0  0  0  0  0  0
    7.7331    0.0000    0.0000 C   0  0  0  0  0  0  0  0  0  0  0  0
    6.8671    1.5000    0.0000 C   0  0  0  0  0  0  0  0  0  0  0  0
    7.7331   -1.0000    0.0000 C   0  0  0  0  0  0  0  0  0  0  0  0
    8.6793    0.3047    0.0000 C   0  0  0  0  0  0  0  0  0  0  0  0
    6.0010    2.0000    0.0000 C   0  0  0  0  0  0  0  0  0  0  0  0
    9.2629   -0.5000    0.0000 C   0  0  0  0  0  0  0  0  0  0  0  0
    6.0010    3.0000    0.0000 C   0  0  0  0  0  0  0  0  0  0  0  0
   10.2629   -0.5000    0.0000 C   0  0  0  0  0  0  0  0  0  0  0  0
    3.4030   -3.1200    0.0000 H   0  0  0  0  0  0  0  0  0  0  0  0
    3.1909   -0.9174    0.0000 H   0  0  0  0  0  0  0  0  0  0  0  0
    2.7924   -1.6077    0.0000 H   0  0  0  0  0  0  0  0  0  0  0  0
    3.8705   -3.4750    0.0000 H   0  0  0  0  0  0  0  0  0  0  0  0
    4.6675   -3.4750    0.0000 H   0  0  0  0  0  0  0  0  0  0  0  0
    4.6675   -0.5251    0.0000 H   0  0  0  0  0  0  0  0  0  0  0  0
    3.8705   -0.5251    0.0000 H   0  0  0  0  0  0  0  0  0  0  0  0
    5.3471   -3.0826    0.0000 H   0  0  0  0  0  0  0  0  0  0  0  0
    5.7456   -2.3923    0.0000 H   0  0  0  0  0  0  0  0  0  0  0  0
    5.4641    0.3100    0.0000 H   0  0  0  0  0  0  0  0  0  0  0  0
    7.4776    1.3923    0.0000 H   0  0  0  0  0  0  0  0  0  0  0  0
    7.0791    2.0826    0.0000 H   0  0  0  0  0  0  0  0  0  0  0  0
    2.0000   -2.6900    0.0000 H   0  0  0  0  0  0  0  0  0  0  0  0
    5.3905    2.1077    0.0000 H   0  0  0  0  0  0  0  0  0  0  0  0
    5.7890    1.4174    0.0000 H   0  0  0  0  0  0  0  0  0  0  0  0
    6.6210    3.0000    0.0000 H   0  0  0  0  0  0  0  0  0  0  0  0
    6.0010    3.6200    0.0000 H   0  0  0  0  0  0  0  0  0  0  0  0
    5.3810    3.0000    0.0000 H   0  0  0  0  0  0  0  0  0  0  0  0
    9.5966    1.3831    0.0000 H   0  0  0  0  0  0  0  0  0  0  0  0
    8.5759    1.7167    0.0000 H   0  0  0  0  0  0  0  0  0  0  0  0
   11.3829   -1.3660    0.0000 H   0  0  0  0  0  0  0  0  0  0  0  0
   10.4529   -1.9030    0.0000 H   0  0  0  0  0  0  0  0  0  0  0  0
  1 18  1  0  0  0  0
  1 21  1  0  0  0  0
  2  8  1  0  0  0  0
  2 36  1  0  0  0  0
  3 23  2  0  0  0  0
  4 11  1  0  0  0  0
  4 12  1  0  0  0  0
  4 13  1  0  0  0  0
  5 13  2  0  0  0  0
  5 18  1  0  0  0  0
  6 19  1  0  0  0  0
  6 42  1  0  0  0  0
  6 43  1  0  0  0  0
  7 23  1  0  0  0  0
  7 44  1  0  0  0  0
  7 45  1  0  0  0  0
  8  9  1  0  0  0  0
  8 10  1  0  0  0  0
  8 24  1  0  0  0  0
  9 11  1  0  0  0  0
  9 25  1  0  0  0  0
  9 26  1  0  0  0  0
 10 12  1  0  0  0  0
 10 27  1  0  0  0  0
 10 28  1  0  0  0  0
 11 29  1  0  0  0  0
 11 30  1  0  0  0  0
 12 31  1  0  0  0  0
 12 32  1  0  0  0  0
 13 15  1  0  0  0  0
 14 15  2  0  0  0  0
 14 16  1  0  0  0  0
 14 17  1  0  0  0  0
 15 33  1  0  0  0  0
 16 18  2  0  0  0  0
 16 19  1  0  0  0  0
 17 20  1  0  0  0  0
 17 34  1  0  0  0  0
 17 35  1  0  0  0  0
 19 21  2  0  0  0  0
 20 22  1  0  0  0  0
 20 37  1  0  0  0  0
 20 38  1  0  0  0  0
 21 23  1  0  0  0  0
 22 39  1  0  0  0  0
 22 40  1  0  0  0  0
 22 41  1  0  0  0  0
M  END
> <PUBCHEM_COMPOUND_CID>
23401001

> <PUBCHEM_COMPOUND_CANONICALIZED>
1

> <PUBCHEM_CACTVS_COMPLEXITY>
430

> <PUBCHEM_CACTVS_HBOND_ACCEPTOR>
6

> <PUBCHEM_CACTVS_HBOND_DONOR>
3

> <PUBCHEM_CACTVS_ROTATABLE_BOND>
4

> <PUBCHEM_CACTVS_SUBSKEYS>
AAADceB7sABAAAAAAAAAAAAAAAAAASAAAAAsWAAAAAAAAFgB+AAAHgQQCAAADBzh2gYz8dNIEgisAidydACD0KllCjgBmDU4ZNiIMHrg3dGEZYxqgALoyWcYiYCOgAAAAAAAAAAAAAAAAAAAAAAAAAAAAA==

> <PUBCHEM_IUPAC_OPENEYE_NAME>
3-amino-6-(4-hydroxy-1-piperidyl)-4-propyl-thieno[2,3-b]pyridine-2-carboxamide

> <PUBCHEM_IUPAC_CAS_NAME>
3-amino-6-(4-hydroxy-1-piperidinyl)-4-propyl-2-thieno[2,3-b]pyridinecarboxamide

> <PUBCHEM_IUPAC_NAME_MARKUP>
3-amino-6-(4-hydroxypiperidin-1-yl)-4-propylthieno[2,3-b]pyridine-2-carboxamide

> <PUBCHEM_IUPAC_NAME>
3-amino-6-(4-hydroxypiperidin-1-yl)-4-propylthieno[2,3-b]pyridine-2-carboxamide

> <PUBCHEM_IUPAC_SYSTEMATIC_NAME>
3-azanyl-6-(4-oxidanylpiperidin-1-yl)-4-propyl-thieno[2,3-b]pyridine-2-carboxamide

> <PUBCHEM_IUPAC_TRADITIONAL_NAME>
3-amino-6-(4-hydroxypiperidino)-4-propyl-thieno[2,3-b]pyridine-2-carboxamide

> <PUBCHEM_IUPAC_INCHI>
InChI=1S/C16H22N4O2S/c1-2-3-9-8-11(20-6-4-10(21)5-7-20)19-16-12(9)13(17)14(23-16)15(18)22/h8,10,21H,2-7,17H2,1H3,(H2,18,22)

> <PUBCHEM_IUPAC_INCHIKEY>
FTSQTLCAVRPYJK-UHFFFAOYSA-N

> <PUBCHEM_XLOGP3_AA>
2.9

> <PUBCHEM_EXACT_MASS>
334.14634713

> <PUBCHEM_MOLECULAR_FORMULA>
C16H22N4O2S

> <PUBCHEM_MOLECULAR_WEIGHT>
334.4

> <PUBCHEM_SMILES>
CCCC1=CC(=NC2=C1C(=C(S2)C(=O)N)N)N3CCC(CC3)O

> <PUBCHEM_OPENEYE_CAN_SMILES>
CCCC1=CC(=NC2=C1C(=C(S2)C(=O)N)N)N3CCC(CC3)O

> <PUBCHEM_OPENEYE_ISO_SMILES>
CCCC1=CC(=NC2=C1C(=C(S2)C(=O)N)N)N3CCC(CC3)O

> <PUBCHEM_CACTVS_TPSA>
134

> <PUBCHEM_MONOISOTOPIC_WEIGHT>
334.14634713

> <PUBCHEM_TOTAL_CHARGE>
0

> <PUBCHEM_HEAVY_ATOM_COUNT>
23

> <PUBCHEM_ATOM_DEF_STEREO_COUNT>
0

> <PUBCHEM_ATOM_UDEF_STEREO_COUNT>
0

> <PUBCHEM_BOND_DEF_STEREO_COUNT>
0

> <PUBCHEM_BOND_UDEF_STEREO_COUNT>
0

> <PUBCHEM_ISOTOPIC_ATOM_COUNT>
0

> <PUBCHEM_COMPONENT_COUNT>
1

> <PUBCHEM_CACTVS_TAUTO_COUNT>
-1

> <PUBCHEM_COORDINATE_TYPE>
1
5
255

> <PUBCHEM_BONDANNOTATIONS>
1  18  8
1  21  8
13  15  8
14  15  8
14  16  8
16  18  8
16  19  8
19  21  8
5  13  8
5  18  8

$$$$
