5329656
  -OEChem-03202500212D

 32 35  0     0  0  0  0  0  0999 V2000
    8.9905    0.0716    0.0000 Cl  0  0  0  0  0  0  0  0  0  0  0  0
    8.7087   -1.6880    0.0000 S   0  0  0  0  0  0  0  0  0  0  0  0
    5.6151    0.3539    0.0000 O   0  0  0  0  0  0  0  0  0  0  0  0
    2.0214    1.8313    0.0000 O   0  0  0  0  0  0  0  0  0  0  0  0
    4.8370   -2.9386    0.0000 N   0  0  0  0  0  0  0  0  0  0  0  0
    5.8311   -2.9377    0.0000 N   0  0  0  0  0  0  0  0  0  0  0  0
    3.6624    1.2770    0.0000 N   0  0  0  0  0  0  0  0  0  0  0  0
    3.3219    2.9753    0.0000 N   0  0  0  0  0  0  0  0  0  0  0  0
    5.3364   -1.4062    0.0000 C   0  0  0  0  0  0  0  0  0  0  0  0
    4.5274   -1.9940    0.0000 C   0  0  0  0  0  0  0  0  0  0  0  0
    3.7183   -1.4062    0.0000 C   0  0  0  0  0  0  0  0  0  0  0  0
    4.0274   -0.4551    0.0000 C   0  0  0  0  0  0  0  0  0  0  0  0
    5.0274   -0.4551    0.0000 C   0  0  0  0  0  0  0  0  0  0  0  0
    6.1391   -1.9926    0.0000 C   0  0  0  0  0  0  0  0  0  0  0  0
    3.3424    0.3296    0.0000 C   0  0  0  0  0  0  0  0  0  0  0  0
    2.7029   -1.6384    0.0000 C   0  0  0  0  0  0  0  0  0  0  0  0
    7.0907   -1.6852    0.0000 C   0  0  0  0  0  0  0  0  0  0  0  0
    2.3219    0.1209    0.0000 C   0  0  0  0  0  0  0  0  0  0  0  0
    2.0000   -0.8697    0.0000 C   0  0  0  0  0  0  0  0  0  0  0  0
    7.4013   -0.7347    0.0000 C   0  0  0  0  0  0  0  0  0  0  0  0
    7.8987   -2.2744    0.0000 C   0  0  0  0  0  0  0  0  0  0  0  0
    8.4013   -0.7364    0.0000 C   0  0  0  0  0  0  0  0  0  0  0  0
    3.0019    2.0279    0.0000 C   0  0  0  0  0  0  0  0  0  0  0  0
    4.4734   -3.4408    0.0000 H   0  0  0  0  0  0  0  0  0  0  0  0
    2.5182   -2.2303    0.0000 H   0  0  0  0  0  0  0  0  0  0  0  0
    1.9088    0.5833    0.0000 H   0  0  0  0  0  0  0  0  0  0  0  0
    1.3940   -1.0010    0.0000 H   0  0  0  0  0  0  0  0  0  0  0  0
    4.2703    1.3989    0.0000 H   0  0  0  0  0  0  0  0  0  0  0  0
    7.0378   -0.2325    0.0000 H   0  0  0  0  0  0  0  0  0  0  0  0
    7.8976   -2.8944    0.0000 H   0  0  0  0  0  0  0  0  0  0  0  0
    2.9124    3.4408    0.0000 H   0  0  0  0  0  0  0  0  0  0  0  0
    3.9298    3.0972    0.0000 H   0  0  0  0  0  0  0  0  0  0  0  0
  1 22  1  0  0  0  0
  2 21  1  0  0  0  0
  2 22  1  0  0  0  0
  3 13  2  0  0  0  0
  4 23  2  0  0  0  0
  5  6  1  0  0  0  0
  5 10  1  0  0  0  0
  5 24  1  0  0  0  0
  6 14  2  0  0  0  0
  7 15  1  0  0  0  0
  7 23  1  0  0  0  0
  7 28  1  0  0  0  0
  8 23  1  0  0  0  0
  8 31  1  0  0  0  0
  8 32  1  0  0  0  0
  9 10  2  0  0  0  0
  9 13  1  0  0  0  0
  9 14  1  0  0  0  0
 10 11  1  0  0  0  0
 11 12  2  0  0  0  0
 11 16  1  0  0  0  0
 12 13  1  0  0  0  0
 12 15  1  0  0  0  0
 14 17  1  0  0  0  0
 15 18  2  0  0  0  0
 16 19  2  0  0  0  0
 16 25  1  0  0  0  0
 17 20  1  0  0  0  0
 17 21  2  0  0  0  0
 18 19  1  0  0  0  0
 18 26  1  0  0  0  0
 19 27  1  0  0  0  0
 20 22  2  0  0  0  0
 20 29  1  0  0  0  0
 21 30  1  0  0  0  0
M  END
> <PUBCHEM_COMPOUND_CID>
5329656

> <PUBCHEM_COMPOUND_CANONICALIZED>
1

> <PUBCHEM_CACTVS_COMPLEXITY>
522

> <PUBCHEM_CACTVS_HBOND_ACCEPTOR>
4

> <PUBCHEM_CACTVS_HBOND_DONOR>
3

> <PUBCHEM_CACTVS_ROTATABLE_BOND>
2

> <PUBCHEM_CACTVS_SUBSKEYS>
AAADccBzsABEAAAAAAAAAAAAAAAAAeJEAAAwAAAAAAAWAGAB8AAAHgYYAAAADA6F3iCxwZLjAAiuA6RyUACTBIAlDxBYuTkgZtiIILrh19GEpYhgnAJoyWcciMCOgAAAQAASAAAAAACAACQAASAACQAAAA==

> <PUBCHEM_IUPAC_OPENEYE_NAME>
[3-(5-chloro-3-thienyl)-4-oxo-1H-indeno[1,2-c]pyrazol-5-yl]urea

> <PUBCHEM_IUPAC_CAS_NAME>
[3-(5-chloro-3-thiophenyl)-4-oxo-1H-indeno[1,2-c]pyrazol-5-yl]urea

> <PUBCHEM_IUPAC_NAME_MARKUP>
[3-(5-chlorothiophen-3-yl)-4-oxo-1<I>H</I>-indeno[1,2-c]pyrazol-5-yl]urea

> <PUBCHEM_IUPAC_NAME>
[3-(5-chlorothiophen-3-yl)-4-oxo-1H-indeno[1,2-c]pyrazol-5-yl]urea

> <PUBCHEM_IUPAC_SYSTEMATIC_NAME>
1-[3-(5-chloranylthiophen-3-yl)-4-oxidanylidene-1H-indeno[1,2-c]pyrazol-5-yl]urea

> <PUBCHEM_IUPAC_TRADITIONAL_NAME>
[3-(5-chloro-3-thienyl)-4-keto-1H-indeno[1,2-c]pyrazol-5-yl]urea

> <PUBCHEM_IUPAC_INCHI>
InChI=1S/C15H9ClN4O2S/c16-9-4-6(5-23-9)12-11-13(20-19-12)7-2-1-3-8(18-15(17)22)10(7)14(11)21/h1-5H,(H,19,20)(H3,17,18,22)

> <PUBCHEM_IUPAC_INCHIKEY>
AGIIDJZSMZSLJN-UHFFFAOYSA-N

> <PUBCHEM_XLOGP3_AA>
2.8

> <PUBCHEM_EXACT_MASS>
344.0134744

> <PUBCHEM_MOLECULAR_FORMULA>
C15H9ClN4O2S

> <PUBCHEM_MOLECULAR_WEIGHT>
344.8

> <PUBCHEM_SMILES>
C1=CC2=C(C(=C1)NC(=O)N)C(=O)C3=C2NN=C3C4=CSC(=C4)Cl

> <PUBCHEM_OPENEYE_CAN_SMILES>
C1=CC2=C(C(=C1)NC(=O)N)C(=O)C3=C2NN=C3C4=CSC(=C4)Cl

> <PUBCHEM_OPENEYE_ISO_SMILES>
C1=CC2=C(C(=C1)NC(=O)N)C(=O)C3=C2NN=C3C4=CSC(=C4)Cl

> <PUBCHEM_CACTVS_TPSA>
129

> <PUBCHEM_MONOISOTOPIC_WEIGHT>
344.0134744

> <PUBCHEM_TOTAL_CHARGE>
0

> <PUBCHEM_HEAVY_ATOM_COUNT>
23

> <PUBCHEM_ATOM_DEF_STEREO_COUNT>
0

> <PUBCHEM_ATOM_UDEF_STEREO_COUNT>
0

> <PUBCHEM_BOND_DEF_STEREO_COUNT>
0

> <PUBCHEM_BOND_UDEF_STEREO_COUNT>
0

> <PUBCHEM_ISOTOPIC_ATOM_COUNT>
0

> <PUBCHEM_COMPONENT_COUNT>
1

> <PUBCHEM_CACTVS_TAUTO_COUNT>
-1

> <PUBCHEM_COORDINATE_TYPE>
1
5
255

> <PUBCHEM_BONDANNOTATIONS>
11  12  8
11  16  8
12  15  8
15  18  8
16  19  8
17  20  8
17  21  8
18  19  8
2  21  8
2  22  8
20  22  8
5  10  8
5  6  8
6  14  8
9  10  8
9  14  8

$$$$
