15941246
  -OEChem-03202505052D

 50 53  0     0  0  0  0  0  0999 V2000
    2.0000    1.0836    0.0000 F   0  0  0  0  0  0  0  0  0  0  0  0
    2.5655   -0.2126    0.0000 F   0  0  0  0  0  0  0  0  0  0  0  0
    3.8618    0.3529    0.0000 F   0  0  0  0  0  0  0  0  0  0  0  0
    5.8974    1.1654    0.0000 O   0  0  0  0  0  0  0  0  0  0  0  0
   10.7204   -2.9064    0.0000 N   0  0  0  0  0  0  0  0  0  0  0  0
   10.7204   -0.6595    0.0000 N   0  0  0  0  0  0  0  0  0  0  0  0
    7.2515    2.2453    0.0000 N   0  0  0  0  0  0  0  0  0  0  0  0
   12.3962   -2.8176    0.0000 N   0  0  0  0  0  0  0  0  0  0  0  0
   13.3023   -1.2622    0.0000 N   0  0  0  0  0  0  0  0  0  0  0  0
    5.6392    2.8781    0.0000 N   0  0  0  0  0  0  0  0  0  0  0  0
   12.3846    0.2516    0.0000 N   0  0  0  0  0  0  0  0  0  0  0  0
    9.3116   -1.7830    0.0000 C   0  0  0  0  0  0  0  0  0  0  0  0
    9.7455   -2.6839    0.0000 C   0  0  0  0  0  0  0  0  0  0  0  0
    9.7455   -0.8820    0.0000 C   0  0  0  0  0  0  0  0  0  0  0  0
    9.1220   -0.1002    0.0000 C   0  0  0  0  0  0  0  0  0  0  0  0
   11.5023   -2.2830    0.0000 C   0  0  0  0  0  0  0  0  0  0  0  0
   11.5023   -1.2830    0.0000 C   0  0  0  0  0  0  0  0  0  0  0  0
    8.1332   -0.2492    0.0000 C   0  0  0  0  0  0  0  0  0  0  0  0
    9.4874    0.8307    0.0000 C   0  0  0  0  0  0  0  0  0  0  0  0
    7.8750    1.4635    0.0000 C   0  0  0  0  0  0  0  0  0  0  0  0
    7.5097    0.5326    0.0000 C   0  0  0  0  0  0  0  0  0  0  0  0
    8.8639    1.6125    0.0000 C   0  0  0  0  0  0  0  0  0  0  0  0
   12.3962   -0.7483    0.0000 C   0  0  0  0  0  0  0  0  0  0  0  0
    4.6504    2.7291    0.0000 C   0  0  0  0  0  0  0  0  0  0  0  0
    6.2627    2.0963    0.0000 C   0  0  0  0  0  0  0  0  0  0  0  0
   13.3023   -2.3038    0.0000 C   0  0  0  0  0  0  0  0  0  0  0  0
    3.2962    1.6492    0.0000 C   0  0  0  0  0  0  0  0  0  0  0  0
    4.2850    1.7982    0.0000 C   0  0  0  0  0  0  0  0  0  0  0  0
    4.0269    3.5109    0.0000 C   0  0  0  0  0  0  0  0  0  0  0  0
    2.6727    2.4310    0.0000 C   0  0  0  0  0  0  0  0  0  0  0  0
    3.0381    3.3619    0.0000 C   0  0  0  0  0  0  0  0  0  0  0  0
    2.9309    0.7183    0.0000 C   0  0  0  0  0  0  0  0  0  0  0  0
    8.8269   -1.3964    0.0000 H   0  0  0  0  0  0  0  0  0  0  0  0
    8.8269   -2.1695    0.0000 H   0  0  0  0  0  0  0  0  0  0  0  0
    9.1410   -2.8219    0.0000 H   0  0  0  0  0  0  0  0  0  0  0  0
    9.7455   -3.3039    0.0000 H   0  0  0  0  0  0  0  0  0  0  0  0
   10.8584   -3.5109    0.0000 H   0  0  0  0  0  0  0  0  0  0  0  0
    7.9067   -0.8263    0.0000 H   0  0  0  0  0  0  0  0  0  0  0  0
   10.1004    0.9231    0.0000 H   0  0  0  0  0  0  0  0  0  0  0  0
    6.8966    0.4402    0.0000 H   0  0  0  0  0  0  0  0  0  0  0  0
    9.0904    2.1897    0.0000 H   0  0  0  0  0  0  0  0  0  0  0  0
    7.4780    2.8225    0.0000 H   0  0  0  0  0  0  0  0  0  0  0  0
   13.8380   -2.6158    0.0000 H   0  0  0  0  0  0  0  0  0  0  0  0
    5.8657    3.4553    0.0000 H   0  0  0  0  0  0  0  0  0  0  0  0
    4.6716    1.3135    0.0000 H   0  0  0  0  0  0  0  0  0  0  0  0
    4.2534    4.0880    0.0000 H   0  0  0  0  0  0  0  0  0  0  0  0
   12.9180    0.5678    0.0000 H   0  0  0  0  0  0  0  0  0  0  0  0
   11.8442    0.5554    0.0000 H   0  0  0  0  0  0  0  0  0  0  0  0
    2.0596    2.3386    0.0000 H   0  0  0  0  0  0  0  0  0  0  0  0
    2.6515    3.8466    0.0000 H   0  0  0  0  0  0  0  0  0  0  0  0
  1 32  1  0  0  0  0
  2 32  1  0  0  0  0
  3 32  1  0  0  0  0
  4 25  2  0  0  0  0
  5 13  1  0  0  0  0
  5 16  1  0  0  0  0
  5 37  1  0  0  0  0
  6 14  2  0  0  0  0
  6 17  1  0  0  0  0
  7 20  1  0  0  0  0
  7 25  1  0  0  0  0
  7 42  1  0  0  0  0
  8 16  2  0  0  0  0
  8 26  1  0  0  0  0
  9 23  1  0  0  0  0
  9 26  2  0  0  0  0
 10 24  1  0  0  0  0
 10 25  1  0  0  0  0
 10 44  1  0  0  0  0
 11 23  1  0  0  0  0
 11 47  1  0  0  0  0
 11 48  1  0  0  0  0
 12 13  1  0  0  0  0
 12 14  1  0  0  0  0
 12 33  1  0  0  0  0
 12 34  1  0  0  0  0
 13 35  1  0  0  0  0
 13 36  1  0  0  0  0
 14 15  1  0  0  0  0
 15 18  2  0  0  0  0
 15 19  1  0  0  0  0
 16 17  1  0  0  0  0
 17 23  2  0  0  0  0
 18 21  1  0  0  0  0
 18 38  1  0  0  0  0
 19 22  2  0  0  0  0
 19 39  1  0  0  0  0
 20 21  2  0  0  0  0
 20 22  1  0  0  0  0
 21 40  1  0  0  0  0
 22 41  1  0  0  0  0
 24 28  1  0  0  0  0
 24 29  2  0  0  0  0
 26 43  1  0  0  0  0
 27 28  2  0  0  0  0
 27 30  1  0  0  0  0
 27 32  1  0  0  0  0
 28 45  1  0  0  0  0
 29 31  1  0  0  0  0
 29 46  1  0  0  0  0
 30 31  2  0  0  0  0
 30 49  1  0  0  0  0
 31 50  1  0  0  0  0
M  END
> <PUBCHEM_COMPOUND_CID>
15941246

> <PUBCHEM_COMPOUND_CANONICALIZED>
1

> <PUBCHEM_CACTVS_COMPLEXITY>
681

> <PUBCHEM_CACTVS_HBOND_ACCEPTOR>
9

> <PUBCHEM_CACTVS_HBOND_DONOR>
4

> <PUBCHEM_CACTVS_ROTATABLE_BOND>
3

> <PUBCHEM_CACTVS_SUBSKEYS>
AAADceB7oYAAAAAAAAAAAAAAAAAAAAAAAAA8YIAABAAAAAAB0AAAHwAQAAAADAjBGhQ18JbIEACoAyZjdACCgCkxEqAJ2KA4dJiIaKLA2dGUJAholALIyCcQgIAOCAAAQAAAAAAQAACAAAAAAAAAAAAAAA==

> <PUBCHEM_IUPAC_OPENEYE_NAME>
1-[4-(4-amino-8,9-dihydro-7H-pyrimido[4,5-b][1,4]diazepin-6-yl)phenyl]-3-[3-(trifluoromethyl)phenyl]urea

> <PUBCHEM_IUPAC_CAS_NAME>
1-[4-(4-amino-8,9-dihydro-7H-pyrimido[4,5-b][1,4]diazepin-6-yl)phenyl]-3-[3-(trifluoromethyl)phenyl]urea

> <PUBCHEM_IUPAC_NAME_MARKUP>
1-[4-(4-amino-8,9-dihydro-7<I>H</I>-pyrimido[4,5-b][1,4]diazepin-6-yl)phenyl]-3-[3-(trifluoromethyl)phenyl]urea

> <PUBCHEM_IUPAC_NAME>
1-[4-(4-amino-8,9-dihydro-7H-pyrimido[4,5-b][1,4]diazepin-6-yl)phenyl]-3-[3-(trifluoromethyl)phenyl]urea

> <PUBCHEM_IUPAC_SYSTEMATIC_NAME>
1-[4-(4-azanyl-8,9-dihydro-7H-pyrimido[4,5-b][1,4]diazepin-6-yl)phenyl]-3-[3-(trifluoromethyl)phenyl]urea

> <PUBCHEM_IUPAC_TRADITIONAL_NAME>
1-[4-(4-amino-8,9-dihydro-7H-pyrimido[4,5-b][1,4]diazepin-6-yl)phenyl]-3-[3-(trifluoromethyl)phenyl]urea

> <PUBCHEM_IUPAC_INCHI>
InChI=1S/C21H18F3N7O/c22-21(23,24)13-2-1-3-15(10-13)30-20(32)29-14-6-4-12(5-7-14)16-8-9-26-19-17(31-16)18(25)27-11-28-19/h1-7,10-11H,8-9H2,(H2,29,30,32)(H3,25,26,27,28)

> <PUBCHEM_IUPAC_INCHIKEY>
FQYLJBVSYHZWLT-UHFFFAOYSA-N

> <PUBCHEM_XLOGP3_AA>
2.7

> <PUBCHEM_EXACT_MASS>
441.15249271

> <PUBCHEM_MOLECULAR_FORMULA>
C21H18F3N7O

> <PUBCHEM_MOLECULAR_WEIGHT>
441.4

> <PUBCHEM_SMILES>
C1CNC2=NC=NC(=C2N=C1C3=CC=C(C=C3)NC(=O)NC4=CC=CC(=C4)C(F)(F)F)N

> <PUBCHEM_OPENEYE_CAN_SMILES>
C1CNC2=NC=NC(=C2N=C1C3=CC=C(C=C3)NC(=O)NC4=CC=CC(=C4)C(F)(F)F)N

> <PUBCHEM_OPENEYE_ISO_SMILES>
C1CNC2=NC=NC(=C2N=C1C3=CC=C(C=C3)NC(=O)NC4=CC=CC(=C4)C(F)(F)F)N

> <PUBCHEM_CACTVS_TPSA>
117

> <PUBCHEM_MONOISOTOPIC_WEIGHT>
441.15249271

> <PUBCHEM_TOTAL_CHARGE>
0

> <PUBCHEM_HEAVY_ATOM_COUNT>
32

> <PUBCHEM_ATOM_DEF_STEREO_COUNT>
0

> <PUBCHEM_ATOM_UDEF_STEREO_COUNT>
0

> <PUBCHEM_BOND_DEF_STEREO_COUNT>
0

> <PUBCHEM_BOND_UDEF_STEREO_COUNT>
0

> <PUBCHEM_ISOTOPIC_ATOM_COUNT>
0

> <PUBCHEM_COMPONENT_COUNT>
1

> <PUBCHEM_CACTVS_TAUTO_COUNT>
-1

> <PUBCHEM_COORDINATE_TYPE>
1
5
255

> <PUBCHEM_BONDANNOTATIONS>
15  18  8
15  19  8
16  17  8
17  23  8
18  21  8
19  22  8
20  21  8
20  22  8
24  28  8
24  29  8
27  28  8
27  30  8
29  31  8
30  31  8
8  16  8
8  26  8
9  23  8
9  26  8

$$$$
