9910164
  -OEChem-03202505072D

 60 61  0     1  0  0  0  0  0999 V2000
    6.8126    1.2013    0.0000 Cl  0  0  0  0  0  0  0  0  0  0  0  0
    3.0084   -0.0348    0.0000 O   0  0  0  0  0  0  0  0  0  0  0  0
    2.8660   -1.3894    0.0000 O   0  0  0  0  0  0  0  0  0  0  0  0
    4.5981   -1.3894    0.0000 N   0  0  0  0  0  0  0  0  0  0  0  0
    4.1674    1.2524    0.0000 N   0  0  0  0  0  0  0  0  0  0  0  0
    4.5981   -3.3894    0.0000 N   0  0  0  0  0  0  0  0  0  0  0  0
    7.4364    4.1357    0.0000 N   0  0  0  0  0  0  0  0  0  0  0  0
    8.5953    5.4229    0.0000 N   0  0  0  0  0  0  0  0  0  0  0  0
    6.9011    5.7830    0.0000 N   0  0  0  0  0  0  0  0  0  0  0  0
    4.7026   -0.3949    0.0000 C   0  0  1  0  0  0  0  0  0  0  0  0
    5.6808   -0.1870    0.0000 C   0  0  0  0  0  0  0  0  0  0  0  0
    6.1808   -1.0530    0.0000 C   0  0  0  0  0  0  0  0  0  0  0  0
    5.5116   -1.7962    0.0000 C   0  0  0  0  0  0  0  0  0  0  0  0
    3.9595    0.2742    0.0000 C   0  0  0  0  0  0  0  0  0  0  0  0
    3.7320   -1.8894    0.0000 C   0  0  0  0  0  0  0  0  0  0  0  0
    3.7320   -2.8894    0.0000 C   0  0  1  0  0  0  0  0  0  0  0  0
    5.1184    1.5614    0.0000 C   0  0  1  0  0  0  0  0  0  0  0  0
    5.3263    2.5395    0.0000 C   0  0  0  0  0  0  0  0  0  0  0  0
    2.8660   -3.3894    0.0000 C   0  0  0  0  0  0  0  0  0  0  0  0
    5.8616    0.8922    0.0000 C   0  0  0  0  0  0  0  0  0  0  0  0
    6.2774    2.8485    0.0000 C   0  0  0  0  0  0  0  0  0  0  0  0
    2.8660   -4.3894    0.0000 C   0  0  0  0  0  0  0  0  0  0  0  0
    6.4853    3.8267    0.0000 C   0  0  0  0  0  0  0  0  0  0  0  0
    3.7320   -4.8894    0.0000 C   0  0  0  0  0  0  0  0  0  0  0  0
    2.0000   -4.8894    0.0000 C   0  0  0  0  0  0  0  0  0  0  0  0
    3.7320   -5.8894    0.0000 C   0  0  0  0  0  0  0  0  0  0  0  0
    2.0000   -5.8894    0.0000 C   0  0  0  0  0  0  0  0  0  0  0  0
    2.8660   -6.3894    0.0000 C   0  0  0  0  0  0  0  0  0  0  0  0
    7.6443    5.1139    0.0000 C   0  0  0  0  0  0  0  0  0  0  0  0
    4.1238   -0.6171    0.0000 H   0  0  0  0  0  0  0  0  0  0  0  0
    6.2472    0.0652    0.0000 H   0  0  0  0  0  0  0  0  0  0  0  0
    5.4892    0.4027    0.0000 H   0  0  0  0  0  0  0  0  0  0  0  0
    6.5956   -1.5138    0.0000 H   0  0  0  0  0  0  0  0  0  0  0  0
    6.6823   -0.6886    0.0000 H   0  0  0  0  0  0  0  0  0  0  0  0
    5.2016   -2.3331    0.0000 H   0  0  0  0  0  0  0  0  0  0  0  0
    6.0132   -2.1606    0.0000 H   0  0  0  0  0  0  0  0  0  0  0  0
    3.7320   -3.5094    0.0000 H   0  0  0  0  0  0  0  0  0  0  0  0
    4.9895    0.9549    0.0000 H   0  0  0  0  0  0  0  0  0  0  0  0
    3.7066    1.6672    0.0000 H   0  0  0  0  0  0  0  0  0  0  0  0
    5.2400    3.1535    0.0000 H   0  0  0  0  0  0  0  0  0  0  0  0
    4.7067    2.5612    0.0000 H   0  0  0  0  0  0  0  0  0  0  0  0
    2.6540   -2.8068    0.0000 H   0  0  0  0  0  0  0  0  0  0  0  0
    2.2554   -3.4971    0.0000 H   0  0  0  0  0  0  0  0  0  0  0  0
    5.3730    0.5105    0.0000 H   0  0  0  0  0  0  0  0  0  0  0  0
    6.1527    0.3448    0.0000 H   0  0  0  0  0  0  0  0  0  0  0  0
    6.3637    2.2346    0.0000 H   0  0  0  0  0  0  0  0  0  0  0  0
    6.8970    2.8269    0.0000 H   0  0  0  0  0  0  0  0  0  0  0  0
    4.5981   -4.0094    0.0000 H   0  0  0  0  0  0  0  0  0  0  0  0
    5.1350   -3.0794    0.0000 H   0  0  0  0  0  0  0  0  0  0  0  0
    6.3990    4.4407    0.0000 H   0  0  0  0  0  0  0  0  0  0  0  0
    5.8657    3.8483    0.0000 H   0  0  0  0  0  0  0  0  0  0  0  0
    4.2690   -4.5794    0.0000 H   0  0  0  0  0  0  0  0  0  0  0  0
    1.4631   -4.5794    0.0000 H   0  0  0  0  0  0  0  0  0  0  0  0
    4.2690   -6.1994    0.0000 H   0  0  0  0  0  0  0  0  0  0  0  0
    1.4631   -6.1994    0.0000 H   0  0  0  0  0  0  0  0  0  0  0  0
    2.8660   -7.0094    0.0000 H   0  0  0  0  0  0  0  0  0  0  0  0
    8.7242    6.0293    0.0000 H   0  0  0  0  0  0  0  0  0  0  0  0
    9.0561    5.0080    0.0000 H   0  0  0  0  0  0  0  0  0  0  0  0
    7.0300    6.3894    0.0000 H   0  0  0  0  0  0  0  0  0  0  0  0
    6.3115    5.5914    0.0000 H   0  0  0  0  0  0  0  0  0  0  0  0
  1 20  1  0  0  0  0
  2 14  2  0  0  0  0
  3 15  2  0  0  0  0
  4 10  1  0  0  0  0
  4 13  1  0  0  0  0
  4 15  1  0  0  0  0
  5 14  1  0  0  0  0
 17  5  1  1  0  0  0
  5 39  1  0  0  0  0
 16  6  1  6  0  0  0
  6 48  1  0  0  0  0
  6 49  1  0  0  0  0
  7 23  1  0  0  0  0
  7 29  2  0  0  0  0
  8 29  1  0  0  0  0
  8 57  1  0  0  0  0
  8 58  1  0  0  0  0
  9 29  1  0  0  0  0
  9 59  1  0  0  0  0
  9 60  1  0  0  0  0
 10 11  1  0  0  0  0
 10 14  1  6  0  0  0
 10 30  1  0  0  0  0
 11 12  1  0  0  0  0
 11 31  1  0  0  0  0
 11 32  1  0  0  0  0
 12 13  1  0  0  0  0
 12 33  1  0  0  0  0
 12 34  1  0  0  0  0
 13 35  1  0  0  0  0
 13 36  1  0  0  0  0
 15 16  1  0  0  0  0
 16 19  1  0  0  0  0
 16 37  1  0  0  0  0
 17 18  1  0  0  0  0
 17 20  1  0  0  0  0
 17 38  1  0  0  0  0
 18 21  1  0  0  0  0
 18 40  1  0  0  0  0
 18 41  1  0  0  0  0
 19 22  1  0  0  0  0
 19 42  1  0  0  0  0
 19 43  1  0  0  0  0
 20 44  1  0  0  0  0
 20 45  1  0  0  0  0
 21 23  1  0  0  0  0
 21 46  1  0  0  0  0
 21 47  1  0  0  0  0
 22 24  2  0  0  0  0
 22 25  1  0  0  0  0
 23 50  1  0  0  0  0
 23 51  1  0  0  0  0
 24 26  1  0  0  0  0
 24 52  1  0  0  0  0
 25 27  2  0  0  0  0
 25 53  1  0  0  0  0
 26 28  2  0  0  0  0
 26 54  1  0  0  0  0
 27 28  1  0  0  0  0
 27 55  1  0  0  0  0
 28 56  1  0  0  0  0
M  END
> <PUBCHEM_COMPOUND_CID>
9910164

> <PUBCHEM_COMPOUND_CANONICALIZED>
1

> <PUBCHEM_CACTVS_COMPLEXITY>
563

> <PUBCHEM_CACTVS_HBOND_ACCEPTOR>
4

> <PUBCHEM_CACTVS_HBOND_DONOR>
4

> <PUBCHEM_CACTVS_ROTATABLE_BOND>
10

> <PUBCHEM_CACTVS_SUBSKEYS>
AAADceB7sAAEAAAAAAAAAAAAAAAAAWAAAAAwAAAAAAAAAAABAAAAHgIQAAAADCvBmEQxAIPAAACoAiFSNAACAAEgAAAIiIGIAogIYDKBkTHUIAAglgCIiAcYiYCOAAAAAAAAAAAAAAAAAAAAAAAAAAAAAA==

> <PUBCHEM_IUPAC_OPENEYE_NAME>
(2S)-1-[(2R)-2-amino-3-phenyl-propanoyl]-N-[(1S)-1-(chloromethyl)-4-guanidino-butyl]pyrrolidine-2-carboxamide

> <PUBCHEM_IUPAC_CAS_NAME>
(2S)-1-[(2R)-2-amino-1-oxo-3-phenylpropyl]-N-[(2S)-1-chloro-5-(diaminomethylideneamino)pentan-2-yl]-2-pyrrolidinecarboxamide

> <PUBCHEM_IUPAC_NAME_MARKUP>
(2<I>S</I>)-1-[(2<I>R</I>)-2-amino-3-phenylpropanoyl]-<I>N</I>-[(2<I>S</I>)-1-chloro-5-(diaminomethylideneamino)pentan-2-yl]pyrrolidine-2-carboxamide

> <PUBCHEM_IUPAC_NAME>
(2S)-1-[(2R)-2-amino-3-phenylpropanoyl]-N-[(2S)-1-chloro-5-(diaminomethylideneamino)pentan-2-yl]pyrrolidine-2-carboxamide

> <PUBCHEM_IUPAC_SYSTEMATIC_NAME>
(2S)-1-[(2R)-2-azanyl-3-phenyl-propanoyl]-N-[(2S)-5-[bis(azanyl)methylideneamino]-1-chloranyl-pentan-2-yl]pyrrolidine-2-carboxamide

> <PUBCHEM_IUPAC_TRADITIONAL_NAME>
(2S)-1-[(2R)-2-amino-3-phenyl-propanoyl]-N-[(1S)-1-(chloromethyl)-4-guanidino-butyl]pyrrolidine-2-carboxamide

> <PUBCHEM_IUPAC_INCHI>
InChI=1S/C20H31ClN6O2/c21-13-15(8-4-10-25-20(23)24)26-18(28)17-9-5-11-27(17)19(29)16(22)12-14-6-2-1-3-7-14/h1-3,6-7,15-17H,4-5,8-13,22H2,(H,26,28)(H4,23,24,25)/t15-,16+,17-/m0/s1

> <PUBCHEM_IUPAC_INCHIKEY>
BRZYOTMFHLERHD-BBWFWOEESA-N

> <PUBCHEM_XLOGP3>
0.5

> <PUBCHEM_EXACT_MASS>
422.2197019

> <PUBCHEM_MOLECULAR_FORMULA>
C20H31ClN6O2

> <PUBCHEM_MOLECULAR_WEIGHT>
423.0

> <PUBCHEM_SMILES>
C1C[C@H](N(C1)C(=O)[C@@H](CC2=CC=CC=C2)N)C(=O)N[C@@H](CCCN=C(N)N)CCl

> <PUBCHEM_OPENEYE_CAN_SMILES>
C1CC(N(C1)C(=O)C(CC2=CC=CC=C2)N)C(=O)NC(CCCN=C(N)N)CCl

> <PUBCHEM_OPENEYE_ISO_SMILES>
C1C[C@H](N(C1)C(=O)[C@@H](CC2=CC=CC=C2)N)C(=O)N[C@@H](CCCN=C(N)N)CCl

> <PUBCHEM_CACTVS_TPSA>
140

> <PUBCHEM_MONOISOTOPIC_WEIGHT>
422.2197019

> <PUBCHEM_TOTAL_CHARGE>
0

> <PUBCHEM_HEAVY_ATOM_COUNT>
29

> <PUBCHEM_ATOM_DEF_STEREO_COUNT>
3

> <PUBCHEM_ATOM_UDEF_STEREO_COUNT>
0

> <PUBCHEM_BOND_DEF_STEREO_COUNT>
0

> <PUBCHEM_BOND_UDEF_STEREO_COUNT>
0

> <PUBCHEM_ISOTOPIC_ATOM_COUNT>
0

> <PUBCHEM_COMPONENT_COUNT>
1

> <PUBCHEM_CACTVS_TAUTO_COUNT>
-1

> <PUBCHEM_COORDINATE_TYPE>
1
5
255

> <PUBCHEM_BONDANNOTATIONS>
10  14  6
22  24  8
22  25  8
24  26  8
25  27  8
26  28  8
27  28  8
17  5  5
16  6  6

$$$$
