136027067
  -OEChem-03202501432D

 32 34  0     0  0  0  0  0  0999 V2000
    9.2740    2.7846    0.0000 Br  0  0  0  0  0  0  0  0  0  0  0  0
    3.5000   -1.6506    0.0000 O   0  0  0  0  0  0  0  0  0  0  0  0
    8.3958   -2.7846    0.0000 O   0  0  0  0  0  0  0  0  0  0  0  0
    5.0000   -2.5167    0.0000 O   0  0  0  0  0  0  0  0  0  0  0  0
    7.5298   -1.2846    0.0000 N   0  0  0  0  0  0  0  0  0  0  0  0
    9.2619   -1.2846    0.0000 N   0  0  0  0  0  0  0  0  0  0  0  0
    6.5836    0.0201    0.0000 N   0  0  0  0  0  0  0  0  0  0  0  0
    6.5836   -1.5894    0.0000 N   0  0  0  0  0  0  0  0  0  0  0  0
    8.3958    0.2154    0.0000 C   0  0  0  0  0  0  0  0  0  0  0  0
    7.5298   -0.2846    0.0000 C   0  0  0  0  0  0  0  0  0  0  0  0
    9.2619   -0.2846    0.0000 C   0  0  0  0  0  0  0  0  0  0  0  0
    6.0000   -0.7846    0.0000 C   0  0  0  0  0  0  0  0  0  0  0  0
    8.3958   -1.7846    0.0000 C   0  0  0  0  0  0  0  0  0  0  0  0
    8.3798    1.2569    0.0000 C   0  0  0  0  0  0  0  0  0  0  0  0
    5.0000   -0.7846    0.0000 C   0  0  0  0  0  0  0  0  0  0  0  0
   10.1719    0.2222    0.0000 C   0  0  0  0  0  0  0  0  0  0  0  0
    9.2778    1.7846    0.0000 C   0  0  0  0  0  0  0  0  0  0  0  0
   10.1799    1.2638    0.0000 C   0  0  0  0  0  0  0  0  0  0  0  0
    4.5000   -1.6506    0.0000 C   0  0  0  0  0  0  0  0  0  0  0  0
    3.0000   -2.5167    0.0000 C   0  0  0  0  0  0  0  0  0  0  0  0
    2.0000   -2.5167    0.0000 C   0  0  0  0  0  0  0  0  0  0  0  0
    9.7988   -1.5946    0.0000 H   0  0  0  0  0  0  0  0  0  0  0  0
    7.8393    1.5607    0.0000 H   0  0  0  0  0  0  0  0  0  0  0  0
    5.1077   -0.1740    0.0000 H   0  0  0  0  0  0  0  0  0  0  0  0
    4.4174   -0.5726    0.0000 H   0  0  0  0  0  0  0  0  0  0  0  0
   10.7052   -0.0940    0.0000 H   0  0  0  0  0  0  0  0  0  0  0  0
   10.7180    1.5718    0.0000 H   0  0  0  0  0  0  0  0  0  0  0  0
    2.8923   -3.1273    0.0000 H   0  0  0  0  0  0  0  0  0  0  0  0
    3.5826   -2.7287    0.0000 H   0  0  0  0  0  0  0  0  0  0  0  0
    2.0000   -1.8967    0.0000 H   0  0  0  0  0  0  0  0  0  0  0  0
    1.3800   -2.5167    0.0000 H   0  0  0  0  0  0  0  0  0  0  0  0
    2.0000   -3.1367    0.0000 H   0  0  0  0  0  0  0  0  0  0  0  0
  1 17  1  0  0  0  0
  2 19  1  0  0  0  0
  2 20  1  0  0  0  0
  3 13  2  0  0  0  0
  4 19  2  0  0  0  0
  5  8  1  0  0  0  0
  5 10  1  0  0  0  0
  5 13  1  0  0  0  0
  6 11  1  0  0  0  0
  6 13  1  0  0  0  0
  6 22  1  0  0  0  0
  7 10  2  0  0  0  0
  7 12  1  0  0  0  0
  8 12  2  0  0  0  0
  9 10  1  0  0  0  0
  9 11  2  0  0  0  0
  9 14  1  0  0  0  0
 11 16  1  0  0  0  0
 12 15  1  0  0  0  0
 14 17  2  0  0  0  0
 14 23  1  0  0  0  0
 15 19  1  0  0  0  0
 15 24  1  0  0  0  0
 15 25  1  0  0  0  0
 16 18  2  0  0  0  0
 16 26  1  0  0  0  0
 17 18  1  0  0  0  0
 18 27  1  0  0  0  0
 20 21  1  0  0  0  0
 20 28  1  0  0  0  0
 20 29  1  0  0  0  0
 21 30  1  0  0  0  0
 21 31  1  0  0  0  0
 21 32  1  0  0  0  0
M  END
> <PUBCHEM_COMPOUND_CID>
136027067

> <PUBCHEM_COMPOUND_CANONICALIZED>
1

> <PUBCHEM_CACTVS_COMPLEXITY>
436

> <PUBCHEM_CACTVS_HBOND_ACCEPTOR>
5

> <PUBCHEM_CACTVS_HBOND_DONOR>
1

> <PUBCHEM_CACTVS_ROTATABLE_BOND>
4

> <PUBCHEM_CACTVS_SUBSKEYS>
AAADccBzsAAAEAAAAAAAAAAAAAAAAWAAAAA8QAAAAAAAAFixwAAAHgBYAAABrAihmwIz2IbIFACqAibyfACSgAshAqQfiCEwZLiIKKrA2ZGGIAh6nQLIyjcQgAAOAAAgEAACAAAAAEAgAAQAAAAAAAAAAA==

> <PUBCHEM_IUPAC_OPENEYE_NAME>
ethyl 2-(9-bromo-5-oxo-6H-[1,2,4]triazolo[1,5-c]quinazolin-2-yl)acetate

> <PUBCHEM_IUPAC_CAS_NAME>
2-(9-bromo-5-oxo-6H-[1,2,4]triazolo[1,5-c]quinazolin-2-yl)acetic acid ethyl ester

> <PUBCHEM_IUPAC_NAME_MARKUP>
ethyl 2-(9-bromo-5-oxo-6<I>H</I>-[1,2,4]triazolo[1,5-c]quinazolin-2-yl)acetate

> <PUBCHEM_IUPAC_NAME>
ethyl 2-(9-bromo-5-oxo-6H-[1,2,4]triazolo[1,5-c]quinazolin-2-yl)acetate

> <PUBCHEM_IUPAC_SYSTEMATIC_NAME>
ethyl 2-(9-bromanyl-5-oxidanylidene-6H-[1,2,4]triazolo[1,5-c]quinazolin-2-yl)ethanoate

> <PUBCHEM_IUPAC_TRADITIONAL_NAME>
2-(9-bromo-5-keto-6H-[1,2,4]triazolo[1,5-c]quinazolin-2-yl)acetic acid ethyl ester

> <PUBCHEM_IUPAC_INCHI>
InChI=1S/C13H11BrN4O3/c1-2-21-11(19)6-10-16-12-8-5-7(14)3-4-9(8)15-13(20)18(12)17-10/h3-5H,2,6H2,1H3,(H,15,20)

> <PUBCHEM_IUPAC_INCHIKEY>
LSZUFMXSTJOZFE-UHFFFAOYSA-N

> <PUBCHEM_XLOGP3_AA>
1.9

> <PUBCHEM_EXACT_MASS>
350.00145

> <PUBCHEM_MOLECULAR_FORMULA>
C13H11BrN4O3

> <PUBCHEM_MOLECULAR_WEIGHT>
351.16

> <PUBCHEM_SMILES>
CCOC(=O)CC1=NN2C(=N1)C3=C(C=CC(=C3)Br)NC2=O

> <PUBCHEM_OPENEYE_CAN_SMILES>
CCOC(=O)CC1=NN2C(=N1)C3=C(C=CC(=C3)Br)NC2=O

> <PUBCHEM_OPENEYE_ISO_SMILES>
CCOC(=O)CC1=NN2C(=N1)C3=C(C=CC(=C3)Br)NC2=O

> <PUBCHEM_CACTVS_TPSA>
86.1

> <PUBCHEM_MONOISOTOPIC_WEIGHT>
350.00145

> <PUBCHEM_TOTAL_CHARGE>
0

> <PUBCHEM_HEAVY_ATOM_COUNT>
21

> <PUBCHEM_ATOM_DEF_STEREO_COUNT>
0

> <PUBCHEM_ATOM_UDEF_STEREO_COUNT>
0

> <PUBCHEM_BOND_DEF_STEREO_COUNT>
0

> <PUBCHEM_BOND_UDEF_STEREO_COUNT>
0

> <PUBCHEM_ISOTOPIC_ATOM_COUNT>
0

> <PUBCHEM_COMPONENT_COUNT>
1

> <PUBCHEM_CACTVS_TAUTO_COUNT>
-1

> <PUBCHEM_COORDINATE_TYPE>
1
5
255

> <PUBCHEM_BONDANNOTATIONS>
11  16  8
14  17  8
16  18  8
17  18  8
5  10  8
5  13  8
5  8  8
6  11  8
6  13  8
7  10  8
7  12  8
8  12  8
9  10  8
9  11  8
9  14  8

$$$$
