16197548
  -OEChem-03222502012D

194206  0     1  0  0  0  0  0999 V2000
    8.1243    1.6668    0.0000 O   0  0  0  0  0  0  0  0  0  0  0  0
   18.4527    0.6884    0.0000 O   0  0  0  0  0  0  0  0  0  0  0  0
   10.8141    1.7175    0.0000 O   0  0  0  0  0  0  0  0  0  0  0  0
   10.0711   -0.5916    0.0000 O   0  0  0  0  0  0  0  0  0  0  0  0
    8.5739   -1.0110    0.0000 O   0  0  0  0  0  0  0  0  0  0  0  0
   16.7206   -1.3116    0.0000 O   0  0  0  0  0  0  0  0  0  0  0  0
   18.4527   -2.3116    0.0000 O   0  0  0  0  0  0  0  0  0  0  0  0
   20.1847   -1.3116    0.0000 O   0  0  0  0  0  0  0  0  0  0  0  0
    6.9998    0.2996    0.0000 O   0  0  0  0  0  0  0  0  0  0  0  0
   20.1847    0.6884    0.0000 O   0  0  0  0  0  0  0  0  0  0  0  0
   10.0939    3.5738    0.0000 O   0  0  0  0  0  0  0  0  0  0  0  0
   16.7206    1.6884    0.0000 O   0  0  0  0  0  0  0  0  0  0  0  0
   12.0381    3.2557    0.0000 O   0  0  0  0  0  0  0  0  0  0  0  0
   11.6893    0.0258    0.0000 O   0  0  0  0  0  0  0  0  0  0  0  0
   14.1226    0.1884    0.0000 O   0  0  0  0  0  0  0  0  0  0  0  0
   15.8546    0.1884    0.0000 O   0  0  0  0  0  0  0  0  0  0  0  0
    6.8659   -0.7234    0.0000 O   0  0  0  0  0  0  0  0  0  0  0  0
   20.1847   -2.3116    0.0000 O   0  0  0  0  0  0  0  0  0  0  0  0
   21.0508    0.1884    0.0000 O   0  0  0  0  0  0  0  0  0  0  0  0
    6.4074    1.9272    0.0000 O   0  0  0  0  0  0  0  0  0  0  0  0
   10.4396    2.6355    0.0000 O   0  0  0  0  0  0  0  0  0  0  0  0
   19.3187    2.1884    0.0000 O   0  0  0  0  0  0  0  0  0  0  0  0
   14.7103    3.6791    0.0000 O   0  0  0  0  0  0  0  0  0  0  0  0
   18.4527    1.6884    0.0000 O   0  0  0  0  0  0  0  0  0  0  0  0
   15.4331    1.7625    0.0000 O   0  0  0  0  0  0  0  0  0  0  0  0
   14.3669    4.6116    0.0000 O   0  0  0  0  0  0  0  0  0  0  0  0
   12.3905   -0.8116    0.0000 O   0  0  0  0  0  0  0  0  0  0  0  0
   13.6737    6.5390    0.0000 O   0  0  0  0  0  0  0  0  0  0  0  0
   11.6552    6.8869    0.0000 O   0  0  0  0  0  0  0  0  0  0  0  0
   14.1226   -3.8116    0.0000 O   0  0  0  0  0  0  0  0  0  0  0  0
   12.7565   -3.1776    0.0000 O   0  0  0  0  0  0  0  0  0  0  0  0
    8.8729   -3.4377    0.0000 O   0  0  0  0  0  0  0  0  0  0  0  0
   12.2932   -3.9866    0.0000 O   0  0  0  0  0  0  0  0  0  0  0  0
    4.6504   -3.1154    0.0000 O   0  0  0  0  0  0  0  0  0  0  0  0
    7.6636   -4.8243    0.0000 O   0  0  0  0  0  0  0  0  0  0  0  0
   21.0508   -5.8116    0.0000 O   0  0  0  0  0  0  0  0  0  0  0  0
   17.5867   -5.8116    0.0000 O   0  0  0  0  0  0  0  0  0  0  0  0
   10.4247   -4.6995    0.0000 O   0  0  0  0  0  0  0  0  0  0  0  0
   24.5149   -0.8116    0.0000 O   0  0  0  0  0  0  0  0  0  0  0  0
   22.7828   -3.8116    0.0000 O   0  0  0  0  0  0  0  0  0  0  0  0
    4.0070   -1.7113    0.0000 O   0  0  0  0  0  0  0  0  0  0  0  0
    2.8222    1.5440    0.0000 O   0  0  0  0  0  0  0  0  0  0  0  0
    5.6638   -4.8398    0.0000 O   0  0  0  0  0  0  0  0  0  0  0  0
   19.3187   -6.8116    0.0000 O   0  0  0  0  0  0  0  0  0  0  0  0
   23.6488    1.6884    0.0000 O   0  0  0  0  0  0  0  0  0  0  0  0
   21.9168    4.6884    0.0000 O   0  0  0  0  0  0  0  0  0  0  0  0
   24.5149   -2.8116    0.0000 O   0  0  0  0  0  0  0  0  0  0  0  0
    2.4750   -0.4257    0.0000 O   0  0  0  0  0  0  0  0  0  0  0  0
   23.6488    3.6884    0.0000 O   0  0  0  0  0  0  0  0  0  0  0  0
   19.3187    5.1884    0.0000 O   0  0  0  0  0  0  0  0  0  0  0  0
   15.8546    5.1884    0.0000 O   0  0  0  0  0  0  0  0  0  0  0  0
   17.5867    6.1884    0.0000 O   0  0  0  0  0  0  0  0  0  0  0  0
    9.8757    1.3718    0.0000 C   0  0  3  0  0  0  0  0  0  0  0  0
    9.7146    0.3427    0.0000 C   0  0  3  0  0  0  0  0  0  0  0  0
    9.1072    2.0117    0.0000 C   0  0  3  0  0  0  0  0  0  0  0  0
    8.7400   -0.0248    0.0000 C   0  0  3  0  0  0  0  0  0  0  0  0
   18.4527   -1.3116    0.0000 C   0  0  3  0  0  0  0  0  0  0  0  0
   17.5867   -0.8116    0.0000 C   0  0  3  0  0  0  0  0  0  0  0  0
   19.3187   -0.8116    0.0000 C   0  0  3  0  0  0  0  0  0  0  0  0
   17.5867    0.1884    0.0000 C   0  0  3  0  0  0  0  0  0  0  0  0
    7.9395    0.6416    0.0000 C   0  0  3  0  0  0  0  0  0  0  0  0
   19.3187    0.1884    0.0000 C   0  0  3  0  0  0  0  0  0  0  0  0
    9.2770    2.9972    0.0000 C   0  0  0  0  0  0  0  0  0  0  0  0
   16.7206    0.6884    0.0000 C   0  0  0  0  0  0  0  0  0  0  0  0
   11.4250    2.4656    0.0000 C   0  0  0  0  0  0  0  0  0  0  0  0
   11.0584   -0.7501    0.0000 C   0  0  0  0  0  0  0  0  0  0  0  0
   15.8546   -0.8116    0.0000 C   0  0  0  0  0  0  0  0  0  0  0  0
    7.6369   -1.3602    0.0000 C   0  0  0  0  0  0  0  0  0  0  0  0
   19.3187   -2.8116    0.0000 C   0  0  0  0  0  0  0  0  0  0  0  0
   12.4105    2.2958    0.0000 C   0  0  0  0  0  0  0  0  0  0  0  0
   21.0508   -0.8116    0.0000 C   0  0  0  0  0  0  0  0  0  0  0  0
    6.2337    0.9424    0.0000 C   0  0  0  0  0  0  0  0  0  0  0  0
   13.0503    3.0643    0.0000 C   0  0  0  0  0  0  0  0  0  0  0  0
   11.0794    3.4040    0.0000 C   0  0  0  0  0  0  0  0  0  0  0  0
   20.1847    1.6884    0.0000 C   0  0  0  0  0  0  0  0  0  0  0  0
   14.9886   -1.3116    0.0000 C   0  0  0  0  0  0  0  0  0  0  0  0
   12.7047    4.0026    0.0000 C   0  0  0  0  0  0  0  0  0  0  0  0
   11.7192    4.1725    0.0000 C   0  0  0  0  0  0  0  0  0  0  0  0
   10.9000   -1.7375    0.0000 C   0  0  0  0  0  0  0  0  0  0  0  0
    7.1437   -2.2302    0.0000 C   0  0  0  0  0  0  0  0  0  0  0  0
   12.7555    1.3130    0.0000 C   0  0  0  0  0  0  0  0  0  0  0  0
   19.3187   -3.8116    0.0000 C   0  0  0  0  0  0  0  0  0  0  0  0
   17.5867    2.1884    0.0000 C   0  0  0  0  0  0  0  0  0  0  0  0
   21.9168   -1.3116    0.0000 C   0  0  0  0  0  0  0  0  0  0  0  0
    5.2940    0.6004    0.0000 C   0  0  0  0  0  0  0  0  0  0  0  0
   14.0794    2.9032    0.0000 C   0  0  0  0  0  0  0  0  0  0  0  0
   13.7805    1.1281    0.0000 C   0  0  0  0  0  0  0  0  0  0  0  0
   14.1226   -0.8116    0.0000 C   0  0  0  0  0  0  0  0  0  0  0  0
   21.0508    2.1884    0.0000 C   0  0  0  0  0  0  0  0  0  0  0  0
   14.4470    1.9286    0.0000 C   0  0  0  0  0  0  0  0  0  0  0  0
   13.3834    4.7928    0.0000 C   0  0  0  0  0  0  0  0  0  0  0  0
   11.3442    5.1443    0.0000 C   0  0  0  0  0  0  0  0  0  0  0  0
   14.9886   -2.3116    0.0000 C   0  0  0  0  0  0  0  0  0  0  0  0
   11.6758   -2.3684    0.0000 C   0  0  0  0  0  0  0  0  0  0  0  0
    9.9657   -2.0940    0.0000 C   0  0  0  0  0  0  0  0  0  0  0  0
    7.6502   -3.0923    0.0000 C   0  0  0  0  0  0  0  0  0  0  0  0
    6.1436   -2.2378    0.0000 C   0  0  0  0  0  0  0  0  0  0  0  0
   17.5867    3.1884    0.0000 C   0  0  0  0  0  0  0  0  0  0  0  0
   18.4527   -4.3116    0.0000 C   0  0  0  0  0  0  0  0  0  0  0  0
   20.1847   -4.3116    0.0000 C   0  0  0  0  0  0  0  0  0  0  0  0
   13.2565   -1.3116    0.0000 C   0  0  0  0  0  0  0  0  0  0  0  0
   21.9168   -2.3116    0.0000 C   0  0  0  0  0  0  0  0  0  0  0  0
   22.7828   -0.8116    0.0000 C   0  0  0  0  0  0  0  0  0  0  0  0
   13.0310    5.7730    0.0000 C   0  0  0  0  0  0  0  0  0  0  0  0
    4.5280    1.2432    0.0000 C   0  0  0  0  0  0  0  0  0  0  0  0
    5.1204   -0.3844    0.0000 C   0  0  0  0  0  0  0  0  0  0  0  0
   12.0045    5.9499    0.0000 C   0  0  0  0  0  0  0  0  0  0  0  0
   14.1226   -2.8116    0.0000 C   0  0  0  0  0  0  0  0  0  0  0  0
   21.0508    3.1884    0.0000 C   0  0  0  0  0  0  0  0  0  0  0  0
   21.9168    1.6884    0.0000 C   0  0  0  0  0  0  0  0  0  0  0  0
   13.2565   -2.3116    0.0000 C   0  0  0  0  0  0  0  0  0  0  0  0
    9.8072   -3.0812    0.0000 C   0  0  0  0  0  0  0  0  0  0  0  0
   11.5174   -3.3557    0.0000 C   0  0  0  0  0  0  0  0  0  0  0  0
    5.6503   -3.1077    0.0000 C   0  0  0  0  0  0  0  0  0  0  0  0
    7.1570   -3.9621    0.0000 C   0  0  0  0  0  0  0  0  0  0  0  0
   20.1847   -5.3116    0.0000 C   0  0  0  0  0  0  0  0  0  0  0  0
   18.4527   -5.3116    0.0000 C   0  0  0  0  0  0  0  0  0  0  0  0
   10.5831   -3.7122    0.0000 C   0  0  0  0  0  0  0  0  0  0  0  0
   23.6488   -1.3116    0.0000 C   0  0  0  0  0  0  0  0  0  0  0  0
   22.7828   -2.8116    0.0000 C   0  0  0  0  0  0  0  0  0  0  0  0
    4.1807   -0.7265    0.0000 C   0  0  0  0  0  0  0  0  0  0  0  0
    3.5883    0.9012    0.0000 C   0  0  0  0  0  0  0  0  0  0  0  0
    6.1570   -3.9699    0.0000 C   0  0  0  0  0  0  0  0  0  0  0  0
   16.7206    3.6884    0.0000 C   0  0  0  0  0  0  0  0  0  0  0  0
   18.4527    3.6884    0.0000 C   0  0  0  0  0  0  0  0  0  0  0  0
   19.3187   -5.8116    0.0000 C   0  0  0  0  0  0  0  0  0  0  0  0
   22.7828    2.1884    0.0000 C   0  0  0  0  0  0  0  0  0  0  0  0
   21.9168    3.6884    0.0000 C   0  0  0  0  0  0  0  0  0  0  0  0
   23.6488   -2.3116    0.0000 C   0  0  0  0  0  0  0  0  0  0  0  0
    3.4146   -0.0837    0.0000 C   0  0  0  0  0  0  0  0  0  0  0  0
   22.7828    3.1884    0.0000 C   0  0  0  0  0  0  0  0  0  0  0  0
   18.4527    4.6884    0.0000 C   0  0  0  0  0  0  0  0  0  0  0  0
   16.7206    4.6884    0.0000 C   0  0  0  0  0  0  0  0  0  0  0  0
   17.5867    5.1884    0.0000 C   0  0  0  0  0  0  0  0  0  0  0  0
   10.3552    0.9788    0.0000 H   0  0  0  0  0  0  0  0  0  0  0  0
   10.3312    0.4075    0.0000 H   0  0  0  0  0  0  0  0  0  0  0  0
    8.6338    2.4120    0.0000 H   0  0  0  0  0  0  0  0  0  0  0  0
    8.1586   -0.2403    0.0000 H   0  0  0  0  0  0  0  0  0  0  0  0
   17.9157   -1.6216    0.0000 H   0  0  0  0  0  0  0  0  0  0  0  0
   17.0497   -0.5016    0.0000 H   0  0  0  0  0  0  0  0  0  0  0  0
   19.3187   -1.4316    0.0000 H   0  0  0  0  0  0  0  0  0  0  0  0
   17.5867    0.8084    0.0000 H   0  0  0  0  0  0  0  0  0  0  0  0
    7.4653    1.0411    0.0000 H   0  0  0  0  0  0  0  0  0  0  0  0
   19.8556   -0.1216    0.0000 H   0  0  0  0  0  0  0  0  0  0  0  0
    9.0628    3.5790    0.0000 H   0  0  0  0  0  0  0  0  0  0  0  0
    8.6596    2.9408    0.0000 H   0  0  0  0  0  0  0  0  0  0  0  0
   16.1101    0.7960    0.0000 H   0  0  0  0  0  0  0  0  0  0  0  0
   16.5086    0.1058    0.0000 H   0  0  0  0  0  0  0  0  0  0  0  0
   12.3533    0.8411    0.0000 H   0  0  0  0  0  0  0  0  0  0  0  0
   10.7320    5.2425    0.0000 H   0  0  0  0  0  0  0  0  0  0  0  0
   15.5255   -2.6216    0.0000 H   0  0  0  0  0  0  0  0  0  0  0  0
   12.2551   -2.1474    0.0000 H   0  0  0  0  0  0  0  0  0  0  0  0
    9.4847   -1.7028    0.0000 H   0  0  0  0  0  0  0  0  0  0  0  0
    8.2702   -3.0875    0.0000 H   0  0  0  0  0  0  0  0  0  0  0  0
    5.8295   -1.7033    0.0000 H   0  0  0  0  0  0  0  0  0  0  0  0
   17.9157   -4.0016    0.0000 H   0  0  0  0  0  0  0  0  0  0  0  0
   20.7217   -4.0016    0.0000 H   0  0  0  0  0  0  0  0  0  0  0  0
   21.3798   -2.6216    0.0000 H   0  0  0  0  0  0  0  0  0  0  0  0
   22.7828   -0.1916    0.0000 H   0  0  0  0  0  0  0  0  0  0  0  0
    4.6356    1.8538    0.0000 H   0  0  0  0  0  0  0  0  0  0  0  0
    5.5953   -0.7830    0.0000 H   0  0  0  0  0  0  0  0  0  0  0  0
   20.5138    3.4984    0.0000 H   0  0  0  0  0  0  0  0  0  0  0  0
   21.9168    1.0684    0.0000 H   0  0  0  0  0  0  0  0  0  0  0  0
   15.3225    3.5808    0.0000 H   0  0  0  0  0  0  0  0  0  0  0  0
   16.1837    3.3784    0.0000 H   0  0  0  0  0  0  0  0  0  0  0  0
   18.9896    3.3784    0.0000 H   0  0  0  0  0  0  0  0  0  0  0  0
   15.6497    1.1816    0.0000 H   0  0  0  0  0  0  0  0  0  0  0  0
   14.7691    5.0834    0.0000 H   0  0  0  0  0  0  0  0  0  0  0  0
   11.8536   -1.1216    0.0000 H   0  0  0  0  0  0  0  0  0  0  0  0
   13.4617    7.1216    0.0000 H   0  0  0  0  0  0  0  0  0  0  0  0
   11.0438    6.9899    0.0000 H   0  0  0  0  0  0  0  0  0  0  0  0
   14.6595   -4.1216    0.0000 H   0  0  0  0  0  0  0  0  0  0  0  0
   12.1365   -3.1776    0.0000 H   0  0  0  0  0  0  0  0  0  0  0  0
    8.7747   -4.0498    0.0000 H   0  0  0  0  0  0  0  0  0  0  0  0
   12.1950   -4.5988    0.0000 H   0  0  0  0  0  0  0  0  0  0  0  0
    4.3362   -2.5808    0.0000 H   0  0  0  0  0  0  0  0  0  0  0  0
    7.3578   -5.3636    0.0000 H   0  0  0  0  0  0  0  0  0  0  0  0
   21.5877   -5.5016    0.0000 H   0  0  0  0  0  0  0  0  0  0  0  0
   17.5867   -6.4316    0.0000 H   0  0  0  0  0  0  0  0  0  0  0  0
   10.9057   -5.0907    0.0000 H   0  0  0  0  0  0  0  0  0  0  0  0
   25.0518   -1.1216    0.0000 H   0  0  0  0  0  0  0  0  0  0  0  0
   23.3197   -4.1216    0.0000 H   0  0  0  0  0  0  0  0  0  0  0  0
    3.4244   -1.9233    0.0000 H   0  0  0  0  0  0  0  0  0  0  0  0
    2.9299    2.1545    0.0000 H   0  0  0  0  0  0  0  0  0  0  0  0
    5.0438   -4.8445    0.0000 H   0  0  0  0  0  0  0  0  0  0  0  0
   19.8556   -7.1216    0.0000 H   0  0  0  0  0  0  0  0  0  0  0  0
   24.1858    1.9984    0.0000 H   0  0  0  0  0  0  0  0  0  0  0  0
   21.3798    4.9984    0.0000 H   0  0  0  0  0  0  0  0  0  0  0  0
   25.0518   -2.5016    0.0000 H   0  0  0  0  0  0  0  0  0  0  0  0
    2.0000   -0.0272    0.0000 H   0  0  0  0  0  0  0  0  0  0  0  0
   23.6488    4.3084    0.0000 H   0  0  0  0  0  0  0  0  0  0  0  0
   19.8556    4.8784    0.0000 H   0  0  0  0  0  0  0  0  0  0  0  0
   15.8546    5.8084    0.0000 H   0  0  0  0  0  0  0  0  0  0  0  0
   18.1236    6.4984    0.0000 H   0  0  0  0  0  0  0  0  0  0  0  0
  1 55  1  0  0  0  0
  1 61  1  0  0  0  0
  2 60  1  0  0  0  0
  2 62  1  0  0  0  0
  3 53  1  0  0  0  0
  3 65  1  0  0  0  0
  4 54  1  0  0  0  0
  4 66  1  0  0  0  0
  5 56  1  0  0  0  0
  5 68  1  0  0  0  0
  6 58  1  0  0  0  0
  6 67  1  0  0  0  0
  7 57  1  0  0  0  0
  7 69  1  0  0  0  0
  8 59  1  0  0  0  0
  8 71  1  0  0  0  0
  9 61  1  0  0  0  0
  9 72  1  0  0  0  0
 10 62  1  0  0  0  0
 10 75  1  0  0  0  0
 11 63  1  0  0  0  0
 11 74  1  0  0  0  0
 12 64  1  0  0  0  0
 12 83  1  0  0  0  0
 13 65  2  0  0  0  0
 14 66  2  0  0  0  0
 15 87  1  0  0  0  0
 15 88  1  0  0  0  0
 16 67  2  0  0  0  0
 17 68  2  0  0  0  0
 18 69  2  0  0  0  0
 19 71  2  0  0  0  0
 20 72  2  0  0  0  0
 21 74  2  0  0  0  0
 22 75  2  0  0  0  0
 23 86  1  0  0  0  0
 23164  1  0  0  0  0
 24 83  2  0  0  0  0
 25 90  1  0  0  0  0
 25167  1  0  0  0  0
 26 91  1  0  0  0  0
 26168  1  0  0  0  0
 27101  1  0  0  0  0
 27169  1  0  0  0  0
 28104  1  0  0  0  0
 28170  1  0  0  0  0
 29107  1  0  0  0  0
 29171  1  0  0  0  0
 30108  1  0  0  0  0
 30172  1  0  0  0  0
 31111  1  0  0  0  0
 31173  1  0  0  0  0
 32112  1  0  0  0  0
 32174  1  0  0  0  0
 33113  1  0  0  0  0
 33175  1  0  0  0  0
 34114  1  0  0  0  0
 34176  1  0  0  0  0
 35115  1  0  0  0  0
 35177  1  0  0  0  0
 36116  1  0  0  0  0
 36178  1  0  0  0  0
 37117  1  0  0  0  0
 37179  1  0  0  0  0
 38118  1  0  0  0  0
 38180  1  0  0  0  0
 39119  1  0  0  0  0
 39181  1  0  0  0  0
 40120  1  0  0  0  0
 40182  1  0  0  0  0
 41121  1  0  0  0  0
 41183  1  0  0  0  0
 42122  1  0  0  0  0
 42184  1  0  0  0  0
 43123  1  0  0  0  0
 43185  1  0  0  0  0
 44126  1  0  0  0  0
 44186  1  0  0  0  0
 45127  1  0  0  0  0
 45187  1  0  0  0  0
 46128  1  0  0  0  0
 46188  1  0  0  0  0
 47129  1  0  0  0  0
 47189  1  0  0  0  0
 48130  1  0  0  0  0
 48190  1  0  0  0  0
 49131  1  0  0  0  0
 49191  1  0  0  0  0
 50132  1  0  0  0  0
 50192  1  0  0  0  0
 51133  1  0  0  0  0
 51193  1  0  0  0  0
 52134  1  0  0  0  0
 52194  1  0  0  0  0
 53 54  1  0  0  0  0
 53 55  1  0  0  0  0
 53135  1  0  0  0  0
 54 56  1  0  0  0  0
 54136  1  0  0  0  0
 55 63  1  0  0  0  0
 55137  1  0  0  0  0
 56 61  1  0  0  0  0
 56138  1  0  0  0  0
 57 58  1  0  0  0  0
 57 59  1  0  0  0  0
 57139  1  0  0  0  0
 58 60  1  0  0  0  0
 58140  1  0  0  0  0
 59 62  1  0  0  0  0
 59141  1  0  0  0  0
 60 64  1  0  0  0  0
 60142  1  0  0  0  0
 61143  1  0  0  0  0
 62144  1  0  0  0  0
 63145  1  0  0  0  0
 63146  1  0  0  0  0
 64147  1  0  0  0  0
 64148  1  0  0  0  0
 65 70  1  0  0  0  0
 66 79  1  0  0  0  0
 67 76  1  0  0  0  0
 68 80  1  0  0  0  0
 69 82  1  0  0  0  0
 70 73  1  0  0  0  0
 70 81  2  0  0  0  0
 71 84  1  0  0  0  0
 72 85  1  0  0  0  0
 73 77  1  0  0  0  0
 73 86  2  0  0  0  0
 74 78  1  0  0  0  0
 75 89  1  0  0  0  0
 76 88  1  0  0  0  0
 76 93  2  0  0  0  0
 77 78  1  0  0  0  0
 77 91  2  0  0  0  0
 78 92  2  0  0  0  0
 79 94  2  0  0  0  0
 79 95  1  0  0  0  0
 80 96  2  0  0  0  0
 80 97  1  0  0  0  0
 81 87  1  0  0  0  0
 81149  1  0  0  0  0
 82 99  2  0  0  0  0
 82100  1  0  0  0  0
 83 98  1  0  0  0  0
 84102  2  0  0  0  0
 84103  1  0  0  0  0
 85105  2  0  0  0  0
 85106  1  0  0  0  0
 86 90  1  0  0  0  0
 87 90  2  0  0  0  0
 88101  2  0  0  0  0
 89109  2  0  0  0  0
 89110  1  0  0  0  0
 91104  1  0  0  0  0
 92107  1  0  0  0  0
 92150  1  0  0  0  0
 93108  1  0  0  0  0
 93151  1  0  0  0  0
 94113  1  0  0  0  0
 94152  1  0  0  0  0
 95112  2  0  0  0  0
 95153  1  0  0  0  0
 96115  1  0  0  0  0
 96154  1  0  0  0  0
 97114  2  0  0  0  0
 97155  1  0  0  0  0
 98124  2  0  0  0  0
 98125  1  0  0  0  0
 99117  1  0  0  0  0
 99156  1  0  0  0  0
100116  2  0  0  0  0
100157  1  0  0  0  0
101111  1  0  0  0  0
102120  1  0  0  0  0
102158  1  0  0  0  0
103119  2  0  0  0  0
103159  1  0  0  0  0
104107  2  0  0  0  0
105122  1  0  0  0  0
105160  1  0  0  0  0
106121  2  0  0  0  0
106161  1  0  0  0  0
108111  2  0  0  0  0
109128  1  0  0  0  0
109162  1  0  0  0  0
110127  2  0  0  0  0
110163  1  0  0  0  0
112118  1  0  0  0  0
113118  2  0  0  0  0
114123  1  0  0  0  0
115123  2  0  0  0  0
116126  1  0  0  0  0
117126  2  0  0  0  0
119129  1  0  0  0  0
120129  2  0  0  0  0
121130  1  0  0  0  0
122130  2  0  0  0  0
124133  1  0  0  0  0
124165  1  0  0  0  0
125132  2  0  0  0  0
125166  1  0  0  0  0
127131  1  0  0  0  0
128131  2  0  0  0  0
132134  1  0  0  0  0
133134  2  0  0  0  0
M  END
> <PUBCHEM_COMPOUND_CID>
16197548

> <PUBCHEM_COMPOUND_CANONICALIZED>
1

> <PUBCHEM_CACTVS_COMPLEXITY>
4010

> <PUBCHEM_CACTVS_HBOND_ACCEPTOR>
52

> <PUBCHEM_CACTVS_HBOND_DONOR>
29

> <PUBCHEM_CACTVS_ROTATABLE_BOND>
27

> <PUBCHEM_CACTVS_SUBSKEYS>
AAADcfB8PgAAAAAAAAAAAAAAAAAAAAAAAAA0aMGDAAAAAAABVAAAGgAACAAADBSwmAMwDoAABgCIAiDSCAACCAAkIAAAiAEGiMgdJzaGNRqieWOl4BUPuYfK7PzOoQABCAAYQABCAAIQADCAAAAAAAAAAA==

> <PUBCHEM_IUPAC_OPENEYE_NAME>
[4,5,6-tris[(3,4,5-trihydroxybenzoyl)oxy]-2-[(3,4,5-trihydroxybenzoyl)oxymethyl]tetrahydropyran-3-yl] 3,4,5-trihydroxy-2-[[3,4,21,22,23-pentahydroxy-8,18-dioxo-11,12,13-tris[(3,4,5-trihydroxybenzoyl)oxy]-9,14,17-trioxatetracyclo[17.4.0.02,7.010,15]tricosa-1(23),2,4,6,19,21-hexaen-5-yl]oxy]benzoate

> <PUBCHEM_IUPAC_CAS_NAME>
3,4,5-trihydroxy-2-[[3,4,21,22,23-pentahydroxy-8,18-dioxo-11,12,13-tris[oxo-(3,4,5-trihydroxyphenyl)methoxy]-9,14,17-trioxatetracyclo[17.4.0.02,7.010,15]tricosa-1(23),2,4,6,19,21-hexaen-5-yl]oxy]benzoic acid [4,5,6-tris[oxo-(3,4,5-trihydroxyphenyl)methoxy]-2-[[oxo-(3,4,5-trihydroxyphenyl)methoxy]methyl]-3-oxanyl] ester

> <PUBCHEM_IUPAC_NAME_MARKUP>
[4,5,6-tris[(3,4,5-trihydroxybenzoyl)oxy]-2-[(3,4,5-trihydroxybenzoyl)oxymethyl]oxan-3-yl] 3,4,5-trihydroxy-2-[[3,4,21,22,23-pentahydroxy-8,18-dioxo-11,12,13-tris[(3,4,5-trihydroxybenzoyl)oxy]-9,14,17-trioxatetracyclo[17.4.0.0<SUP>2,7</SUP>.0<SUP>10,15</SUP>]tricosa-1(23),2,4,6,19,21-hexaen-5-yl]oxy]benzoate

> <PUBCHEM_IUPAC_NAME>
[4,5,6-tris[(3,4,5-trihydroxybenzoyl)oxy]-2-[(3,4,5-trihydroxybenzoyl)oxymethyl]oxan-3-yl] 3,4,5-trihydroxy-2-[[3,4,21,22,23-pentahydroxy-8,18-dioxo-11,12,13-tris[(3,4,5-trihydroxybenzoyl)oxy]-9,14,17-trioxatetracyclo[17.4.0.02,7.010,15]tricosa-1(23),2,4,6,19,21-hexaen-5-yl]oxy]benzoate

> <PUBCHEM_IUPAC_SYSTEMATIC_NAME>
[4,5,6-tris[[3,4,5-tris(oxidanyl)phenyl]carbonyloxy]-2-[[3,4,5-tris(oxidanyl)phenyl]carbonyloxymethyl]oxan-3-yl] 3,4,5-tris(oxidanyl)-2-[[3,4,21,22,23-pentakis(oxidanyl)-8,18-bis(oxidanylidene)-11,12,13-tris[[3,4,5-tris(oxidanyl)phenyl]carbonyloxy]-9,14,17-trioxatetracyclo[17.4.0.02,7.010,15]tricosa-1(23),2,4,6,19,21-hexaen-5-yl]oxy]benzoate

> <PUBCHEM_IUPAC_TRADITIONAL_NAME>
3,4,5-trihydroxy-2-[(11,12,13-trigalloyloxy-3,4,21,22,23-pentahydroxy-8,18-diketo-9,14,17-trioxatetracyclo[17.4.0.02,7.010,15]tricosa-1(23),2,4,6,19,21-hexaen-5-yl)oxy]benzoic acid [4,5,6-trigalloyloxy-2-(galloyloxymethyl)tetrahydropyran-3-yl] ester

> <PUBCHEM_IUPAC_INCHI>
InChI=1S/C82H60O52/c83-30-1-20(2-31(84)51(30)99)71(112)122-18-47-66(68(130-73(114)22-5-34(87)53(101)35(88)6-22)70(132-75(116)24-9-38(91)55(103)39(92)10-24)81(125-47)133-76(117)25-11-40(93)56(104)41(94)12-25)128-80(121)29-16-45(98)59(107)63(111)64(29)124-46-17-28-50(62(110)60(46)108)49-27(15-44(97)58(106)61(49)109)78(119)123-19-48-65(127-79(28)120)67(129-72(113)21-3-32(85)52(100)33(86)4-21)69(131-74(115)23-7-36(89)54(102)37(90)8-23)82(126-48)134-77(118)26-13-42(95)57(105)43(96)14-26/h1-17,47-48,65-70,81-111H,18-19H2

> <PUBCHEM_IUPAC_INCHIKEY>
YSSBESKZQJIWSZ-UHFFFAOYSA-N

> <PUBCHEM_XLOGP3_AA>
5.1

> <PUBCHEM_EXACT_MASS>
1876.2050621

> <PUBCHEM_MOLECULAR_FORMULA>
C82H60O52

> <PUBCHEM_MOLECULAR_WEIGHT>
1877.3

> <PUBCHEM_SMILES>
C1C2C(C(C(C(O2)OC(=O)C3=CC(=C(C(=C3)O)O)O)OC(=O)C4=CC(=C(C(=C4)O)O)O)OC(=O)C5=CC(=C(C(=C5)O)O)O)OC(=O)C6=CC(=C(C(=C6C7=C(C(=C(C=C7C(=O)O1)O)O)O)O)O)OC8=C(C(=C(C=C8C(=O)OC9C(OC(C(C9OC(=O)C1=CC(=C(C(=C1)O)O)O)OC(=O)C1=CC(=C(C(=C1)O)O)O)OC(=O)C1=CC(=C(C(=C1)O)O)O)COC(=O)C1=CC(=C(C(=C1)O)O)O)O)O)O

> <PUBCHEM_OPENEYE_CAN_SMILES>
C1C2C(C(C(C(O2)OC(=O)C3=CC(=C(C(=C3)O)O)O)OC(=O)C4=CC(=C(C(=C4)O)O)O)OC(=O)C5=CC(=C(C(=C5)O)O)O)OC(=O)C6=CC(=C(C(=C6C7=C(C(=C(C=C7C(=O)O1)O)O)O)O)O)OC8=C(C(=C(C=C8C(=O)OC9C(OC(C(C9OC(=O)C1=CC(=C(C(=C1)O)O)O)OC(=O)C1=CC(=C(C(=C1)O)O)O)OC(=O)C1=CC(=C(C(=C1)O)O)O)COC(=O)C1=CC(=C(C(=C1)O)O)O)O)O)O

> <PUBCHEM_OPENEYE_ISO_SMILES>
C1C2C(C(C(C(O2)OC(=O)C3=CC(=C(C(=C3)O)O)O)OC(=O)C4=CC(=C(C(=C4)O)O)O)OC(=O)C5=CC(=C(C(=C5)O)O)O)OC(=O)C6=CC(=C(C(=C6C7=C(C(=C(C=C7C(=O)O1)O)O)O)O)O)OC8=C(C(=C(C=C8C(=O)OC9C(OC(C(C9OC(=O)C1=CC(=C(C(=C1)O)O)O)OC(=O)C1=CC(=C(C(=C1)O)O)O)OC(=O)C1=CC(=C(C(=C1)O)O)O)COC(=O)C1=CC(=C(C(=C1)O)O)O)O)O)O

> <PUBCHEM_CACTVS_TPSA>
877

> <PUBCHEM_MONOISOTOPIC_WEIGHT>
1876.2050621

> <PUBCHEM_TOTAL_CHARGE>
0

> <PUBCHEM_HEAVY_ATOM_COUNT>
134

> <PUBCHEM_ATOM_DEF_STEREO_COUNT>
0

> <PUBCHEM_ATOM_UDEF_STEREO_COUNT>
10

> <PUBCHEM_BOND_DEF_STEREO_COUNT>
0

> <PUBCHEM_BOND_UDEF_STEREO_COUNT>
0

> <PUBCHEM_ISOTOPIC_ATOM_COUNT>
0

> <PUBCHEM_COMPONENT_COUNT>
1

> <PUBCHEM_CACTVS_TAUTO_COUNT>
-1

> <PUBCHEM_COORDINATE_TYPE>
1
5
255

> <PUBCHEM_BONDANNOTATIONS>
62  10  3
100  116  8
101  111  8
102  120  8
103  119  8
104  107  8
105  122  8
106  121  8
108  111  8
109  128  8
110  127  8
112  118  8
113  118  8
114  123  8
115  123  8
116  126  8
117  126  8
119  129  8
120  129  8
121  130  8
122  130  8
124  133  8
125  132  8
127  131  8
128  131  8
132  134  8
133  134  8
53  3  3
54  4  3
56  5  3
55  63  3
58  6  3
60  64  3
57  7  3
70  73  8
70  81  8
73  86  8
76  88  8
76  93  8
77  78  8
77  91  8
78  92  8
79  94  8
79  95  8
59  8  3
80  96  8
80  97  8
81  87  8
82  100  8
82  99  8
84  102  8
84  103  8
85  105  8
85  106  8
86  90  8
87  90  8
88  101  8
89  109  8
89  110  8
61  9  3
91  104  8
92  107  8
93  108  8
94  113  8
95  112  8
96  115  8
97  114  8
98  124  8
98  125  8
99  117  8

$$$$
