49842779
  -OEChem-03202500252D

 48 49  0     1  0  0  0  0  0999 V2000
    6.3301   -1.2621    0.0000 O   0  0  0  0  0  0  0  0  0  0  0  0
    9.8602    1.7621    0.0000 O   0  0  0  0  0  0  0  0  0  0  0  0
    8.0785   -1.2967    0.0000 O   0  0  0  0  0  0  0  0  0  0  0  0
    2.0000    0.2379    0.0000 O   0  0  0  0  0  0  0  0  0  0  0  0
    5.4641    0.2379    0.0000 O   0  0  0  0  0  0  0  0  0  0  0  0
    5.4641    1.2379    0.0000 C   0  0  0  0  0  0  0  0  0  0  0  0
    4.5981    1.7379    0.0000 C   0  0  0  0  0  0  0  0  0  0  0  0
    6.3301    1.7379    0.0000 C   0  0  0  0  0  0  0  0  0  0  0  0
    3.7320    1.2379    0.0000 C   0  0  0  0  0  0  0  0  0  0  0  0
    7.1962    1.2379    0.0000 C   0  0  0  0  0  0  0  0  0  0  0  0
    3.7320    0.2379    0.0000 C   0  0  0  0  0  0  0  0  0  0  0  0
    7.1962    0.2379    0.0000 C   0  0  0  0  0  0  0  0  0  0  0  0
    5.4641   -1.7621    0.0000 C   0  0  2  0  0  0  0  0  0  0  0  0
    8.0901    1.7726    0.0000 C   0  0  0  0  0  0  0  0  0  0  0  0
    4.5981   -1.2621    0.0000 C   0  0  0  0  0  0  0  0  0  0  0  0
    2.8660   -0.2621    0.0000 C   0  0  0  0  0  0  0  0  0  0  0  0
    8.0901   -0.2967    0.0000 C   0  0  0  0  0  0  0  0  0  0  0  0
    6.3301   -0.2621    0.0000 C   0  0  0  0  0  0  0  0  0  0  0  0
    8.9962    1.2587    0.0000 C   0  0  0  0  0  0  0  0  0  0  0  0
    8.9962    0.2171    0.0000 C   0  0  0  0  0  0  0  0  0  0  0  0
    3.7320   -1.7621    0.0000 C   0  0  0  0  0  0  0  0  0  0  0  0
    2.8660   -1.2621    0.0000 C   0  0  0  0  0  0  0  0  0  0  0  0
    5.4641   -2.7621    0.0000 C   0  0  0  0  0  0  0  0  0  0  0  0
    9.8564    2.7621    0.0000 C   0  0  0  0  0  0  0  0  0  0  0  0
    5.0656    0.7630    0.0000 H   0  0  0  0  0  0  0  0  0  0  0  0
    5.8626    0.7630    0.0000 H   0  0  0  0  0  0  0  0  0  0  0  0
    4.9966    2.2129    0.0000 H   0  0  0  0  0  0  0  0  0  0  0  0
    4.1996    2.2129    0.0000 H   0  0  0  0  0  0  0  0  0  0  0  0
    6.7287    2.2129    0.0000 H   0  0  0  0  0  0  0  0  0  0  0  0
    5.9316    2.2129    0.0000 H   0  0  0  0  0  0  0  0  0  0  0  0
    3.5200    1.8205    0.0000 H   0  0  0  0  0  0  0  0  0  0  0  0
    3.1215    1.1303    0.0000 H   0  0  0  0  0  0  0  0  0  0  0  0
    3.9441   -0.3447    0.0000 H   0  0  0  0  0  0  0  0  0  0  0  0
    4.3426    0.3456    0.0000 H   0  0  0  0  0  0  0  0  0  0  0  0
    6.0010   -2.0721    0.0000 H   0  0  0  0  0  0  0  0  0  0  0  0
    8.0829    2.3926    0.0000 H   0  0  0  0  0  0  0  0  0  0  0  0
    4.9966   -0.7871    0.0000 H   0  0  0  0  0  0  0  0  0  0  0  0
    4.1996   -0.7871    0.0000 H   0  0  0  0  0  0  0  0  0  0  0  0
    9.5319   -0.0950    0.0000 H   0  0  0  0  0  0  0  0  0  0  0  0
    3.7320   -2.3821    0.0000 H   0  0  0  0  0  0  0  0  0  0  0  0
    2.3291   -1.5721    0.0000 H   0  0  0  0  0  0  0  0  0  0  0  0
    4.8441   -2.7621    0.0000 H   0  0  0  0  0  0  0  0  0  0  0  0
    5.4641   -3.3821    0.0000 H   0  0  0  0  0  0  0  0  0  0  0  0
    6.0841   -2.7621    0.0000 H   0  0  0  0  0  0  0  0  0  0  0  0
    8.6118   -1.6128    0.0000 H   0  0  0  0  0  0  0  0  0  0  0  0
   10.4764    2.7645    0.0000 H   0  0  0  0  0  0  0  0  0  0  0  0
    9.8540    3.3821    0.0000 H   0  0  0  0  0  0  0  0  0  0  0  0
    9.2364    2.7597    0.0000 H   0  0  0  0  0  0  0  0  0  0  0  0
  1 13  1  0  0  0  0
  1 18  1  0  0  0  0
  2 19  1  0  0  0  0
  2 24  1  0  0  0  0
  3 17  1  0  0  0  0
  3 45  1  0  0  0  0
  4 16  2  0  0  0  0
  5 18  2  0  0  0  0
  6  7  1  0  0  0  0
  6  8  1  0  0  0  0
  6 25  1  0  0  0  0
  6 26  1  0  0  0  0
  7  9  1  0  0  0  0
  7 27  1  0  0  0  0
  7 28  1  0  0  0  0
  8 10  1  0  0  0  0
  8 29  1  0  0  0  0
  8 30  1  0  0  0  0
  9 11  1  0  0  0  0
  9 31  1  0  0  0  0
  9 32  1  0  0  0  0
 10 12  2  0  0  0  0
 10 14  1  0  0  0  0
 11 16  1  0  0  0  0
 11 33  1  0  0  0  0
 11 34  1  0  0  0  0
 12 17  1  0  0  0  0
 12 18  1  0  0  0  0
 13 15  1  0  0  0  0
 13 23  1  1  0  0  0
 13 35  1  0  0  0  0
 14 19  2  0  0  0  0
 14 36  1  0  0  0  0
 15 21  1  0  0  0  0
 15 37  1  0  0  0  0
 15 38  1  0  0  0  0
 16 22  1  0  0  0  0
 17 20  2  0  0  0  0
 19 20  1  0  0  0  0
 20 39  1  0  0  0  0
 21 22  2  0  0  0  0
 21 40  1  0  0  0  0
 22 41  1  0  0  0  0
 23 42  1  0  0  0  0
 23 43  1  0  0  0  0
 23 44  1  0  0  0  0
 24 46  1  0  0  0  0
 24 47  1  0  0  0  0
 24 48  1  0  0  0  0
M  END
> <PUBCHEM_COMPOUND_CID>
49842779

> <PUBCHEM_COMPOUND_CANONICALIZED>
1

> <PUBCHEM_CACTVS_COMPLEXITY>
459

> <PUBCHEM_CACTVS_HBOND_ACCEPTOR>
5

> <PUBCHEM_CACTVS_HBOND_DONOR>
1

> <PUBCHEM_CACTVS_ROTATABLE_BOND>
1

> <PUBCHEM_CACTVS_SUBSKEYS>
AAADceB4OAAAAAAAAAAAAAAAAAAAAAAAAAAwAAAAAAAAAAABAAAAGgAACAAADBSgmAIyDoAABgCIAqDSCAACCAAkIAAIiAEGCMgMJzaGNRqCcWAl4BUIuYeI7PzOoAABCAAYAABAAAIQADAAAAAAAAAAAA==

> <PUBCHEM_IUPAC_OPENEYE_NAME>
(4S,6Z)-18-hydroxy-16-methoxy-4-methyl-3-oxabicyclo[12.4.0]octadeca-1(14),6,15,17-tetraene-2,8-dione

> <PUBCHEM_IUPAC_CAS_NAME>
(4S,6Z)-18-hydroxy-16-methoxy-4-methyl-3-oxabicyclo[12.4.0]octadeca-1(14),6,15,17-tetraene-2,8-dione

> <PUBCHEM_IUPAC_NAME_MARKUP>
(4<I>S</I>,6<I>Z</I>)-18-hydroxy-16-methoxy-4-methyl-3-oxabicyclo[12.4.0]octadeca-1(14),6,15,17-tetraene-2,8-dione

> <PUBCHEM_IUPAC_NAME>
(4S,6Z)-18-hydroxy-16-methoxy-4-methyl-3-oxabicyclo[12.4.0]octadeca-1(14),6,15,17-tetraene-2,8-dione

> <PUBCHEM_IUPAC_SYSTEMATIC_NAME>
(4S,6Z)-16-methoxy-4-methyl-18-oxidanyl-3-oxabicyclo[12.4.0]octadeca-1(14),6,15,17-tetraene-2,8-dione

> <PUBCHEM_IUPAC_TRADITIONAL_NAME>
(4S,6Z)-18-hydroxy-16-methoxy-4-methyl-3-oxabicyclo[12.4.0]octadeca-1(14),6,15,17-tetraene-2,8-quinone

> <PUBCHEM_IUPAC_INCHI>
InChI=1S/C19H24O5/c1-13-7-6-10-15(20)9-5-3-4-8-14-11-16(23-2)12-17(21)18(14)19(22)24-13/h6,10-13,21H,3-5,7-9H2,1-2H3/b10-6-/t13-/m0/s1

> <PUBCHEM_IUPAC_INCHIKEY>
JWTUFAOHKVRJNA-HKBVPSITSA-N

> <PUBCHEM_XLOGP3_AA>
4.4

> <PUBCHEM_EXACT_MASS>
332.16237386

> <PUBCHEM_MOLECULAR_FORMULA>
C19H24O5

> <PUBCHEM_MOLECULAR_WEIGHT>
332.4

> <PUBCHEM_SMILES>
C[C@H]1C/C=C\C(=O)CCCCCC2=C(C(=CC(=C2)OC)O)C(=O)O1

> <PUBCHEM_OPENEYE_CAN_SMILES>
CC1CC=CC(=O)CCCCCC2=C(C(=CC(=C2)OC)O)C(=O)O1

> <PUBCHEM_OPENEYE_ISO_SMILES>
C[C@H]1C/C=C\C(=O)CCCCCC2=C(C(=CC(=C2)OC)O)C(=O)O1

> <PUBCHEM_CACTVS_TPSA>
72.8

> <PUBCHEM_MONOISOTOPIC_WEIGHT>
332.16237386

> <PUBCHEM_TOTAL_CHARGE>
0

> <PUBCHEM_HEAVY_ATOM_COUNT>
24

> <PUBCHEM_ATOM_DEF_STEREO_COUNT>
1

> <PUBCHEM_ATOM_UDEF_STEREO_COUNT>
0

> <PUBCHEM_BOND_DEF_STEREO_COUNT>
1

> <PUBCHEM_BOND_UDEF_STEREO_COUNT>
0

> <PUBCHEM_ISOTOPIC_ATOM_COUNT>
0

> <PUBCHEM_COMPONENT_COUNT>
1

> <PUBCHEM_CACTVS_TAUTO_COUNT>
-1

> <PUBCHEM_COORDINATE_TYPE>
1
5
255

> <PUBCHEM_BONDANNOTATIONS>
10  12  8
10  14  8
12  17  8
13  23  5
14  19  8
17  20  8
19  20  8

$$$$
