10363069
  -OEChem-03202505392D

 42 45  0     0  0  0  0  0  0999 V2000
    5.5301   -0.3450    0.0000 Cl  0  0  0  0  0  0  0  0  0  0  0  0
    7.2622    3.6550    0.0000 O   0  0  0  0  0  0  0  0  0  0  0  0
    8.9942    3.6550    0.0000 O   0  0  0  0  0  0  0  0  0  0  0  0
    7.2622   -3.3450    0.0000 O   0  0  0  0  0  0  0  0  0  0  0  0
    7.2622    0.6550    0.0000 N   0  0  0  0  0  0  0  0  0  0  0  0
    9.8602    2.1550    0.0000 N   0  0  0  0  0  0  0  0  0  0  0  0
    2.0038   -0.3758    0.0000 N   0  0  0  0  0  0  0  0  0  0  0  0
    6.3961    1.1550    0.0000 C   0  0  0  0  0  0  0  0  0  0  0  0
    6.3961    2.1550    0.0000 C   0  0  0  0  0  0  0  0  0  0  0  0
    5.5022    0.6203    0.0000 C   0  0  0  0  0  0  0  0  0  0  0  0
    4.5961    1.1342    0.0000 C   0  0  0  0  0  0  0  0  0  0  0  0
    7.2622   -0.3450    0.0000 C   0  0  0  0  0  0  0  0  0  0  0  0
    8.1282    1.1550    0.0000 C   0  0  0  0  0  0  0  0  0  0  0  0
    7.2622    2.6550    0.0000 C   0  0  0  0  0  0  0  0  0  0  0  0
    8.1282    2.1550    0.0000 C   0  0  0  0  0  0  0  0  0  0  0  0
    5.5022    2.6897    0.0000 C   0  0  0  0  0  0  0  0  0  0  0  0
    4.5961    2.1758    0.0000 C   0  0  0  0  0  0  0  0  0  0  0  0
    3.7320    0.6308    0.0000 C   0  0  0  0  0  0  0  0  0  0  0  0
    6.3961   -0.8450    0.0000 C   0  0  0  0  0  0  0  0  0  0  0  0
    8.1282   -0.8450    0.0000 C   0  0  0  0  0  0  0  0  0  0  0  0
    8.9942    2.6550    0.0000 C   0  0  0  0  0  0  0  0  0  0  0  0
    6.3961   -1.8450    0.0000 C   0  0  0  0  0  0  0  0  0  0  0  0
    8.1282   -1.8450    0.0000 C   0  0  0  0  0  0  0  0  0  0  0  0
    2.8641    1.1275    0.0000 C   0  0  0  0  0  0  0  0  0  0  0  0
    3.7359   -0.3691    0.0000 C   0  0  0  0  0  0  0  0  0  0  0  0
    7.2622   -2.3450    0.0000 C   0  0  0  0  0  0  0  0  0  0  0  0
    2.0000    0.6242    0.0000 C   0  0  0  0  0  0  0  0  0  0  0  0
    2.8718   -0.8725    0.0000 C   0  0  0  0  0  0  0  0  0  0  0  0
    5.5094    0.0004    0.0000 H   0  0  0  0  0  0  0  0  0  0  0  0
    8.6651    0.8450    0.0000 H   0  0  0  0  0  0  0  0  0  0  0  0
    5.5094    3.3096    0.0000 H   0  0  0  0  0  0  0  0  0  0  0  0
    4.0604    2.4879    0.0000 H   0  0  0  0  0  0  0  0  0  0  0  0
    8.6651   -0.5350    0.0000 H   0  0  0  0  0  0  0  0  0  0  0  0
    5.8592   -2.1550    0.0000 H   0  0  0  0  0  0  0  0  0  0  0  0
    8.6651   -2.1550    0.0000 H   0  0  0  0  0  0  0  0  0  0  0  0
    2.8617    1.7475    0.0000 H   0  0  0  0  0  0  0  0  0  0  0  0
    4.2740   -0.6771    0.0000 H   0  0  0  0  0  0  0  0  0  0  0  0
    1.4619    0.9321    0.0000 H   0  0  0  0  0  0  0  0  0  0  0  0
    2.8742   -1.4925    0.0000 H   0  0  0  0  0  0  0  0  0  0  0  0
   10.3972    2.4650    0.0000 H   0  0  0  0  0  0  0  0  0  0  0  0
    9.8602    1.5350    0.0000 H   0  0  0  0  0  0  0  0  0  0  0  0
    7.7991   -3.6550    0.0000 H   0  0  0  0  0  0  0  0  0  0  0  0
  1 19  1  0  0  0  0
  2 14  2  0  0  0  0
  3 21  2  0  0  0  0
  4 26  1  0  0  0  0
  4 42  1  0  0  0  0
  5  8  1  0  0  0  0
  5 12  1  0  0  0  0
  5 13  1  0  0  0  0
  6 21  1  0  0  0  0
  6 40  1  0  0  0  0
  6 41  1  0  0  0  0
  7 27  2  0  0  0  0
  7 28  1  0  0  0  0
  8  9  2  0  0  0  0
  8 10  1  0  0  0  0
  9 14  1  0  0  0  0
  9 16  1  0  0  0  0
 10 11  2  0  0  0  0
 10 29  1  0  0  0  0
 11 17  1  0  0  0  0
 11 18  1  0  0  0  0
 12 19  2  0  0  0  0
 12 20  1  0  0  0  0
 13 15  2  0  0  0  0
 13 30  1  0  0  0  0
 14 15  1  0  0  0  0
 15 21  1  0  0  0  0
 16 17  2  0  0  0  0
 16 31  1  0  0  0  0
 17 32  1  0  0  0  0
 18 24  2  0  0  0  0
 18 25  1  0  0  0  0
 19 22  1  0  0  0  0
 20 23  2  0  0  0  0
 20 33  1  0  0  0  0
 22 26  2  0  0  0  0
 22 34  1  0  0  0  0
 23 26  1  0  0  0  0
 23 35  1  0  0  0  0
 24 27  1  0  0  0  0
 24 36  1  0  0  0  0
 25 28  2  0  0  0  0
 25 37  1  0  0  0  0
 27 38  1  0  0  0  0
 28 39  1  0  0  0  0
M  END
> <PUBCHEM_COMPOUND_CID>
10363069

> <PUBCHEM_COMPOUND_CANONICALIZED>
1

> <PUBCHEM_CACTVS_COMPLEXITY>
649

> <PUBCHEM_CACTVS_HBOND_ACCEPTOR>
5

> <PUBCHEM_CACTVS_HBOND_DONOR>
2

> <PUBCHEM_CACTVS_ROTATABLE_BOND>
3

> <PUBCHEM_CACTVS_SUBSKEYS>
AAADccB7MAAEAAAAAAAAAAAAAAAAAAAAAAA8YIEAAAAAAACB0AAAHgIQCAAADA7BmiQ8xpNIEgCoArV3VACCgCA1JyAI2CE+btgIJnrLl5PEcYhkwBHI2ce4ycCewEAAQQACABCAgACCAAQAIAAAAAAAAA==

> <PUBCHEM_IUPAC_OPENEYE_NAME>
1-(2-chloro-4-hydroxy-phenyl)-4-oxo-7-(4-pyridyl)quinoline-3-carboxamide

> <PUBCHEM_IUPAC_CAS_NAME>
1-(2-chloro-4-hydroxyphenyl)-4-oxo-7-pyridin-4-yl-3-quinolinecarboxamide

> <PUBCHEM_IUPAC_NAME_MARKUP>
1-(2-chloro-4-hydroxyphenyl)-4-oxo-7-pyridin-4-ylquinoline-3-carboxamide

> <PUBCHEM_IUPAC_NAME>
1-(2-chloro-4-hydroxyphenyl)-4-oxo-7-pyridin-4-ylquinoline-3-carboxamide

> <PUBCHEM_IUPAC_SYSTEMATIC_NAME>
1-(2-chloranyl-4-oxidanyl-phenyl)-4-oxidanylidene-7-pyridin-4-yl-quinoline-3-carboxamide

> <PUBCHEM_IUPAC_TRADITIONAL_NAME>
1-(2-chloro-4-hydroxy-phenyl)-4-keto-7-(4-pyridyl)quinoline-3-carboxamide

> <PUBCHEM_IUPAC_INCHI>
InChI=1S/C21H14ClN3O3/c22-17-10-14(26)2-4-18(17)25-11-16(21(23)28)20(27)15-3-1-13(9-19(15)25)12-5-7-24-8-6-12/h1-11,26H,(H2,23,28)

> <PUBCHEM_IUPAC_INCHIKEY>
CLRFYTGANQZOBS-UHFFFAOYSA-N

> <PUBCHEM_XLOGP3>
1.4

> <PUBCHEM_EXACT_MASS>
391.0723690

> <PUBCHEM_MOLECULAR_FORMULA>
C21H14ClN3O3

> <PUBCHEM_MOLECULAR_WEIGHT>
391.8

> <PUBCHEM_SMILES>
C1=CC2=C(C=C1C3=CC=NC=C3)N(C=C(C2=O)C(=O)N)C4=C(C=C(C=C4)O)Cl

> <PUBCHEM_OPENEYE_CAN_SMILES>
C1=CC2=C(C=C1C3=CC=NC=C3)N(C=C(C2=O)C(=O)N)C4=C(C=C(C=C4)O)Cl

> <PUBCHEM_OPENEYE_ISO_SMILES>
C1=CC2=C(C=C1C3=CC=NC=C3)N(C=C(C2=O)C(=O)N)C4=C(C=C(C=C4)O)Cl

> <PUBCHEM_CACTVS_TPSA>
96.5

> <PUBCHEM_MONOISOTOPIC_WEIGHT>
391.0723690

> <PUBCHEM_TOTAL_CHARGE>
0

> <PUBCHEM_HEAVY_ATOM_COUNT>
28

> <PUBCHEM_ATOM_DEF_STEREO_COUNT>
0

> <PUBCHEM_ATOM_UDEF_STEREO_COUNT>
0

> <PUBCHEM_BOND_DEF_STEREO_COUNT>
0

> <PUBCHEM_BOND_UDEF_STEREO_COUNT>
0

> <PUBCHEM_ISOTOPIC_ATOM_COUNT>
0

> <PUBCHEM_COMPONENT_COUNT>
1

> <PUBCHEM_CACTVS_TAUTO_COUNT>
-1

> <PUBCHEM_COORDINATE_TYPE>
1
5
255

> <PUBCHEM_BONDANNOTATIONS>
10  11  8
11  17  8
12  19  8
12  20  8
13  15  8
14  15  8
16  17  8
18  24  8
18  25  8
19  22  8
20  23  8
22  26  8
23  26  8
24  27  8
25  28  8
5  13  8
5  8  8
7  27  8
7  28  8
8  10  8
8  9  8
9  14  8
9  16  8

$$$$
