18516349
  -OEChem-03202503452D

 28 30  0     0  0  0  0  0  0999 V2000
    4.6783   -2.1032    0.0000 S   0  0  0  0  0  0  0  0  0  0  0  0
    6.7619   -0.4325    0.0000 O   0  0  0  0  0  0  0  0  0  0  0  0
    2.0000   -1.7985    0.0000 N   0  0  0  0  0  0  0  0  0  0  0  0
    6.7619   -2.1645    0.0000 N   0  0  0  0  0  0  0  0  0  0  0  0
    3.7320   -0.7985    0.0000 C   0  0  0  0  0  0  0  0  0  0  0  0
    2.8660   -0.2985    0.0000 C   0  0  0  0  0  0  0  0  0  0  0  0
    3.7320   -1.7985    0.0000 C   0  0  0  0  0  0  0  0  0  0  0  0
    2.8660    0.7015    0.0000 C   0  0  0  0  0  0  0  0  0  0  0  0
    4.6783   -0.4938    0.0000 C   0  0  0  0  0  0  0  0  0  0  0  0
    5.2619   -1.2985    0.0000 C   0  0  0  0  0  0  0  0  0  0  0  0
    2.0000   -0.7985    0.0000 C   0  0  0  0  0  0  0  0  0  0  0  0
    2.8660   -2.2985    0.0000 C   0  0  0  0  0  0  0  0  0  0  0  0
    3.7320    1.2015    0.0000 C   0  0  0  0  0  0  0  0  0  0  0  0
    2.0000    1.2015    0.0000 C   0  0  0  0  0  0  0  0  0  0  0  0
    3.7320    2.2015    0.0000 C   0  0  0  0  0  0  0  0  0  0  0  0
    2.0000    2.2015    0.0000 C   0  0  0  0  0  0  0  0  0  0  0  0
    6.2619   -1.2985    0.0000 C   0  0  0  0  0  0  0  0  0  0  0  0
    2.8660    2.7015    0.0000 C   0  0  0  0  0  0  0  0  0  0  0  0
    4.8709    0.0955    0.0000 H   0  0  0  0  0  0  0  0  0  0  0  0
    1.4631   -0.4885    0.0000 H   0  0  0  0  0  0  0  0  0  0  0  0
    2.8660   -2.9185    0.0000 H   0  0  0  0  0  0  0  0  0  0  0  0
    4.2690    0.8915    0.0000 H   0  0  0  0  0  0  0  0  0  0  0  0
    1.4631    0.8915    0.0000 H   0  0  0  0  0  0  0  0  0  0  0  0
    4.2690    2.5115    0.0000 H   0  0  0  0  0  0  0  0  0  0  0  0
    1.4631    2.5115    0.0000 H   0  0  0  0  0  0  0  0  0  0  0  0
    2.8660    3.3215    0.0000 H   0  0  0  0  0  0  0  0  0  0  0  0
    7.3819   -2.1645    0.0000 H   0  0  0  0  0  0  0  0  0  0  0  0
    6.4519   -2.7015    0.0000 H   0  0  0  0  0  0  0  0  0  0  0  0
  1  7  1  0  0  0  0
  1 10  1  0  0  0  0
  2 17  2  0  0  0  0
  3 11  1  0  0  0  0
  3 12  2  0  0  0  0
  4 17  1  0  0  0  0
  4 27  1  0  0  0  0
  4 28  1  0  0  0  0
  5  6  1  0  0  0  0
  5  7  2  0  0  0  0
  5  9  1  0  0  0  0
  6  8  1  0  0  0  0
  6 11  2  0  0  0  0
  7 12  1  0  0  0  0
  8 13  2  0  0  0  0
  8 14  1  0  0  0  0
  9 10  2  0  0  0  0
  9 19  1  0  0  0  0
 10 17  1  0  0  0  0
 11 20  1  0  0  0  0
 12 21  1  0  0  0  0
 13 15  1  0  0  0  0
 13 22  1  0  0  0  0
 14 16  2  0  0  0  0
 14 23  1  0  0  0  0
 15 18  2  0  0  0  0
 15 24  1  0  0  0  0
 16 18  1  0  0  0  0
 16 25  1  0  0  0  0
 18 26  1  0  0  0  0
M  END
> <PUBCHEM_COMPOUND_CID>
18516349

> <PUBCHEM_COMPOUND_CANONICALIZED>
1

> <PUBCHEM_CACTVS_COMPLEXITY>
317

> <PUBCHEM_CACTVS_HBOND_ACCEPTOR>
3

> <PUBCHEM_CACTVS_HBOND_DONOR>
1

> <PUBCHEM_CACTVS_ROTATABLE_BOND>
2

> <PUBCHEM_CACTVS_SUBSKEYS>
AAADccBzIABAAAAAAAAAAAAAAAAAASAAAAA8QAAAAAAAAFgB/AAAHgQQAAAADADB2gQ8gdJIEAisAjF3VACDoKA1CDBI2D0oRNgIIHLglZGEIQhggADoyYcYiMCOgAAAAAAAAAAAAAAAAAAAAAAAAAAAAA==

> <PUBCHEM_IUPAC_OPENEYE_NAME>
4-phenylthieno[2,3-c]pyridine-2-carboxamide

> <PUBCHEM_IUPAC_CAS_NAME>
4-phenyl-2-thieno[2,3-c]pyridinecarboxamide

> <PUBCHEM_IUPAC_NAME_MARKUP>
4-phenylthieno[2,3-c]pyridine-2-carboxamide

> <PUBCHEM_IUPAC_NAME>
4-phenylthieno[2,3-c]pyridine-2-carboxamide

> <PUBCHEM_IUPAC_SYSTEMATIC_NAME>
4-phenylthieno[2,3-c]pyridine-2-carboxamide

> <PUBCHEM_IUPAC_TRADITIONAL_NAME>
4-phenylthieno[2,3-c]pyridine-2-carboxamide

> <PUBCHEM_IUPAC_INCHI>
InChI=1S/C14H10N2OS/c15-14(17)12-6-10-11(7-16-8-13(10)18-12)9-4-2-1-3-5-9/h1-8H,(H2,15,17)

> <PUBCHEM_IUPAC_INCHIKEY>
DZIPQNPWTUXXSJ-UHFFFAOYSA-N

> <PUBCHEM_XLOGP3_AA>
2.7

> <PUBCHEM_EXACT_MASS>
254.05138412

> <PUBCHEM_MOLECULAR_FORMULA>
C14H10N2OS

> <PUBCHEM_MOLECULAR_WEIGHT>
254.31

> <PUBCHEM_SMILES>
C1=CC=C(C=C1)C2=CN=CC3=C2C=C(S3)C(=O)N

> <PUBCHEM_OPENEYE_CAN_SMILES>
C1=CC=C(C=C1)C2=CN=CC3=C2C=C(S3)C(=O)N

> <PUBCHEM_OPENEYE_ISO_SMILES>
C1=CC=C(C=C1)C2=CN=CC3=C2C=C(S3)C(=O)N

> <PUBCHEM_CACTVS_TPSA>
84.2

> <PUBCHEM_MONOISOTOPIC_WEIGHT>
254.05138412

> <PUBCHEM_TOTAL_CHARGE>
0

> <PUBCHEM_HEAVY_ATOM_COUNT>
18

> <PUBCHEM_ATOM_DEF_STEREO_COUNT>
0

> <PUBCHEM_ATOM_UDEF_STEREO_COUNT>
0

> <PUBCHEM_BOND_DEF_STEREO_COUNT>
0

> <PUBCHEM_BOND_UDEF_STEREO_COUNT>
0

> <PUBCHEM_ISOTOPIC_ATOM_COUNT>
0

> <PUBCHEM_COMPONENT_COUNT>
1

> <PUBCHEM_CACTVS_TAUTO_COUNT>
-1

> <PUBCHEM_COORDINATE_TYPE>
1
5
255

> <PUBCHEM_BONDANNOTATIONS>
1  10  8
1  7  8
13  15  8
14  16  8
15  18  8
16  18  8
3  11  8
3  12  8
5  6  8
5  7  8
5  9  8
6  11  8
7  12  8
8  13  8
8  14  8
9  10  8

$$$$
