49830578
  -OEChem-03202504112D

 42 45  0     0  0  0  0  0  0999 V2000
    6.8137    2.7093    0.0000 O   0  0  0  0  0  0  0  0  0  0  0  0
    2.2263    0.5040    0.0000 O   0  0  0  0  0  0  0  0  0  0  0  0
    3.9134    0.8959    0.0000 O   0  0  0  0  0  0  0  0  0  0  0  0
    7.7476   -0.3823    0.0000 N   0  0  0  0  0  0  0  0  0  0  0  0
    8.2476    1.8083    0.0000 N   0  0  0  0  0  0  0  0  0  0  0  0
    6.8466    0.0516    0.0000 C   0  0  0  0  0  0  0  0  0  0  0  0
    6.6241    1.0265    0.0000 C   0  0  0  0  0  0  0  0  0  0  0  0
    5.0964   -0.3693    0.0000 C   0  0  0  0  0  0  0  0  0  0  0  0
    6.0941   -0.6686    0.0000 C   0  0  0  0  0  0  0  0  0  0  0  0
    8.6486    0.0516    0.0000 C   0  0  0  0  0  0  0  0  0  0  0  0
    4.3659   -1.0522    0.0000 C   0  0  0  0  0  0  0  0  0  0  0  0
    8.8711    1.0265    0.0000 C   0  0  0  0  0  0  0  0  0  0  0  0
    5.6336    1.3488    0.0000 C   0  0  0  0  0  0  0  0  0  0  0  0
    4.8646    0.6463    0.0000 C   0  0  0  0  0  0  0  0  0  0  0  0
    7.2476    1.8083    0.0000 C   0  0  0  0  0  0  0  0  0  0  0  0
    3.4092   -0.7612    0.0000 C   0  0  0  0  0  0  0  0  0  0  0  0
    9.4011   -0.6686    0.0000 C   0  0  0  0  0  0  0  0  0  0  0  0
    9.8616    1.3488    0.0000 C   0  0  0  0  0  0  0  0  0  0  0  0
    4.5922   -2.0263    0.0000 C   0  0  0  0  0  0  0  0  0  0  0  0
   10.3988   -0.3693    0.0000 C   0  0  0  0  0  0  0  0  0  0  0  0
    2.6788   -1.4442    0.0000 C   0  0  0  0  0  0  0  0  0  0  0  0
   10.6306    0.6462    0.0000 C   0  0  0  0  0  0  0  0  0  0  0  0
    3.8618   -2.7093    0.0000 C   0  0  0  0  0  0  0  0  0  0  0  0
    2.9051   -2.4182    0.0000 C   0  0  0  0  0  0  0  0  0  0  0  0
    3.1830    0.2129    0.0000 C   0  0  0  0  0  0  0  0  0  0  0  0
    2.0000    1.4780    0.0000 C   0  0  0  0  0  0  0  0  0  0  0  0
    6.2390   -1.2714    0.0000 H   0  0  0  0  0  0  0  0  0  0  0  0
    7.7476   -1.0023    0.0000 H   0  0  0  0  0  0  0  0  0  0  0  0
    5.5026    1.9548    0.0000 H   0  0  0  0  0  0  0  0  0  0  0  0
    4.2728    0.8313    0.0000 H   0  0  0  0  0  0  0  0  0  0  0  0
    8.5166    2.3669    0.0000 H   0  0  0  0  0  0  0  0  0  0  0  0
    9.2562   -1.2714    0.0000 H   0  0  0  0  0  0  0  0  0  0  0  0
    9.9926    1.9548    0.0000 H   0  0  0  0  0  0  0  0  0  0  0  0
    5.1854   -2.2068    0.0000 H   0  0  0  0  0  0  0  0  0  0  0  0
   10.8517   -0.7928    0.0000 H   0  0  0  0  0  0  0  0  0  0  0  0
    2.0857   -1.2637    0.0000 H   0  0  0  0  0  0  0  0  0  0  0  0
   11.2223    0.8312    0.0000 H   0  0  0  0  0  0  0  0  0  0  0  0
    4.0021   -3.3132    0.0000 H   0  0  0  0  0  0  0  0  0  0  0  0
    2.4522   -2.8417    0.0000 H   0  0  0  0  0  0  0  0  0  0  0  0
    2.6039    1.6183    0.0000 H   0  0  0  0  0  0  0  0  0  0  0  0
    1.8597    2.0820    0.0000 H   0  0  0  0  0  0  0  0  0  0  0  0
    1.3961    1.3378    0.0000 H   0  0  0  0  0  0  0  0  0  0  0  0
  1 15  2  0  0  0  0
  2 25  1  0  0  0  0
  2 26  1  0  0  0  0
  3 25  2  0  0  0  0
  4  6  1  0  0  0  0
  4 10  1  0  0  0  0
  4 28  1  0  0  0  0
  5 12  1  0  0  0  0
  5 15  1  0  0  0  0
  5 31  1  0  0  0  0
  6  7  2  0  0  0  0
  6  9  1  0  0  0  0
  7 13  1  0  0  0  0
  7 15  1  0  0  0  0
  8  9  2  0  0  0  0
  8 11  1  0  0  0  0
  8 14  1  0  0  0  0
  9 27  1  0  0  0  0
 10 12  1  0  0  0  0
 10 17  2  0  0  0  0
 11 16  1  0  0  0  0
 11 19  2  0  0  0  0
 12 18  2  0  0  0  0
 13 14  2  0  0  0  0
 13 29  1  0  0  0  0
 14 30  1  0  0  0  0
 16 21  2  0  0  0  0
 16 25  1  0  0  0  0
 17 20  1  0  0  0  0
 17 32  1  0  0  0  0
 18 22  1  0  0  0  0
 18 33  1  0  0  0  0
 19 23  1  0  0  0  0
 19 34  1  0  0  0  0
 20 22  2  0  0  0  0
 20 35  1  0  0  0  0
 21 24  1  0  0  0  0
 21 36  1  0  0  0  0
 22 37  1  0  0  0  0
 23 24  2  0  0  0  0
 23 38  1  0  0  0  0
 24 39  1  0  0  0  0
 26 40  1  0  0  0  0
 26 41  1  0  0  0  0
 26 42  1  0  0  0  0
M  END
> <PUBCHEM_COMPOUND_CID>
49830578

> <PUBCHEM_COMPOUND_CANONICALIZED>
1

> <PUBCHEM_CACTVS_COMPLEXITY>
537

> <PUBCHEM_CACTVS_HBOND_ACCEPTOR>
4

> <PUBCHEM_CACTVS_HBOND_DONOR>
2

> <PUBCHEM_CACTVS_ROTATABLE_BOND>
3

> <PUBCHEM_CACTVS_SUBSKEYS>
AAADceB7MAAAAAAAAAAAAAAAAAAAAAAAAAAwYMAABYAAAAABUAAAHgAQAAAADAiBmAIyyILABACIAiXSWACCAAAlAgAIiAEAfMgIZnrA9ZmUMYhk1AHI6ceYyOCOwAAAQAASACCAAACAACQAQAAAAAAAAA==

> <PUBCHEM_IUPAC_OPENEYE_NAME>
methyl 2-(6-oxo-5,11-dihydrobenzo[b][1,4]benzodiazepin-9-yl)benzoate

> <PUBCHEM_IUPAC_CAS_NAME>
2-(6-oxo-5,11-dihydrobenzo[b][1,4]benzodiazepin-9-yl)benzoic acid methyl ester

> <PUBCHEM_IUPAC_NAME_MARKUP>
methyl 2-(6-oxo-5,11-dihydrobenzo[b][1,4]benzodiazepin-9-yl)benzoate

> <PUBCHEM_IUPAC_NAME>
methyl 2-(6-oxo-5,11-dihydrobenzo[b][1,4]benzodiazepin-9-yl)benzoate

> <PUBCHEM_IUPAC_SYSTEMATIC_NAME>
methyl 2-(6-oxidanylidene-5,11-dihydrobenzo[b][1,4]benzodiazepin-9-yl)benzoate

> <PUBCHEM_IUPAC_TRADITIONAL_NAME>
2-(6-keto-5,11-dihydrobenzo[b][1,4]benzodiazepin-9-yl)benzoic acid methyl ester

> <PUBCHEM_IUPAC_INCHI>
InChI=1S/C21H16N2O3/c1-26-21(25)15-7-3-2-6-14(15)13-10-11-16-19(12-13)22-17-8-4-5-9-18(17)23-20(16)24/h2-12,22H,1H3,(H,23,24)

> <PUBCHEM_IUPAC_INCHIKEY>
PIYLMTVHAQUHKQ-UHFFFAOYSA-N

> <PUBCHEM_XLOGP3_AA>
3.9

> <PUBCHEM_EXACT_MASS>
344.11609238

> <PUBCHEM_MOLECULAR_FORMULA>
C21H16N2O3

> <PUBCHEM_MOLECULAR_WEIGHT>
344.4

> <PUBCHEM_SMILES>
COC(=O)C1=CC=CC=C1C2=CC3=C(C=C2)C(=O)NC4=CC=CC=C4N3

> <PUBCHEM_OPENEYE_CAN_SMILES>
COC(=O)C1=CC=CC=C1C2=CC3=C(C=C2)C(=O)NC4=CC=CC=C4N3

> <PUBCHEM_OPENEYE_ISO_SMILES>
COC(=O)C1=CC=CC=C1C2=CC3=C(C=C2)C(=O)NC4=CC=CC=C4N3

> <PUBCHEM_CACTVS_TPSA>
67.4

> <PUBCHEM_MONOISOTOPIC_WEIGHT>
344.11609238

> <PUBCHEM_TOTAL_CHARGE>
0

> <PUBCHEM_HEAVY_ATOM_COUNT>
26

> <PUBCHEM_ATOM_DEF_STEREO_COUNT>
0

> <PUBCHEM_ATOM_UDEF_STEREO_COUNT>
0

> <PUBCHEM_BOND_DEF_STEREO_COUNT>
0

> <PUBCHEM_BOND_UDEF_STEREO_COUNT>
0

> <PUBCHEM_ISOTOPIC_ATOM_COUNT>
0

> <PUBCHEM_COMPONENT_COUNT>
1

> <PUBCHEM_CACTVS_TAUTO_COUNT>
-1

> <PUBCHEM_COORDINATE_TYPE>
1
5
255

> <PUBCHEM_BONDANNOTATIONS>
10  12  8
10  17  8
11  16  8
11  19  8
12  18  8
13  14  8
16  21  8
17  20  8
18  22  8
19  23  8
20  22  8
21  24  8
23  24  8
6  7  8
6  9  8
7  13  8
8  14  8
8  9  8

$$$$
