44591740
  -OEChem-03202506482D

 49 52  0     0  0  0  0  0  0999 V2000
    2.5896    2.6651    0.0000 O   0  0  0  0  0  0  0  0  0  0  0  0
    7.7990   -1.6542    0.0000 N   0  0  0  0  0  0  0  0  0  0  0  0
    2.7522   -1.9906    0.0000 N   0  0  0  0  0  0  0  0  0  0  0  0
    3.2522   -2.8567    0.0000 N   0  0  0  0  0  0  0  0  0  0  0  0
    6.0669   -1.6542    0.0000 N   0  0  0  0  0  0  0  0  0  0  0  0
    6.9329   -0.1542    0.0000 N   0  0  0  0  0  0  0  0  0  0  0  0
    3.2134   -0.2694    0.0000 C   0  0  0  0  0  0  0  0  0  0  0  0
    2.2623    0.0397    0.0000 C   0  0  0  0  0  0  0  0  0  0  0  0
    3.9565    0.3998    0.0000 C   0  0  0  0  0  0  0  0  0  0  0  0
    2.0544    1.0178    0.0000 C   0  0  0  0  0  0  0  0  0  0  0  0
    3.7486    1.3779    0.0000 C   0  0  0  0  0  0  0  0  0  0  0  0
    2.7976    1.6869    0.0000 C   0  0  0  0  0  0  0  0  0  0  0  0
    8.6650   -1.1542    0.0000 C   0  0  0  0  0  0  0  0  0  0  0  0
    9.5785   -1.5610    0.0000 C   0  0  0  0  0  0  0  0  0  0  0  0
    8.7695   -0.1597    0.0000 C   0  0  0  0  0  0  0  0  0  0  0  0
   10.2477   -0.8178    0.0000 C   0  0  0  0  0  0  0  0  0  0  0  0
    9.7476    0.0482    0.0000 C   0  0  0  0  0  0  0  0  0  0  0  0
    3.4213   -1.2475    0.0000 C   0  0  0  0  0  0  0  0  0  0  0  0
    4.3348   -1.6542    0.0000 C   0  0  0  0  0  0  0  0  0  0  0  0
    5.2009   -1.1542    0.0000 C   0  0  0  0  0  0  0  0  0  0  0  0
    6.9329   -1.1542    0.0000 C   0  0  0  0  0  0  0  0  0  0  0  0
    4.2303   -2.6488    0.0000 C   0  0  0  0  0  0  0  0  0  0  0  0
    5.2009   -0.1542    0.0000 C   0  0  0  0  0  0  0  0  0  0  0  0
    6.0669    0.3458    0.0000 C   0  0  0  0  0  0  0  0  0  0  0  0
    2.7526   -0.6842    0.0000 H   0  0  0  0  0  0  0  0  0  0  0  0
    1.6427    0.0180    0.0000 H   0  0  0  0  0  0  0  0  0  0  0  0
    2.1760   -0.5743    0.0000 H   0  0  0  0  0  0  0  0  0  0  0  0
    4.2851   -0.1260    0.0000 H   0  0  0  0  0  0  0  0  0  0  0  0
    4.5314    0.6320    0.0000 H   0  0  0  0  0  0  0  0  0  0  0  0
    1.7259    1.5436    0.0000 H   0  0  0  0  0  0  0  0  0  0  0  0
    1.4796    0.7856    0.0000 H   0  0  0  0  0  0  0  0  0  0  0  0
    4.3682    1.3996    0.0000 H   0  0  0  0  0  0  0  0  0  0  0  0
    3.8349    1.9919    0.0000 H   0  0  0  0  0  0  0  0  0  0  0  0
    3.2583    2.1018    0.0000 H   0  0  0  0  0  0  0  0  0  0  0  0
    8.6974   -1.7734    0.0000 H   0  0  0  0  0  0  0  0  0  0  0  0
    9.2685   -2.0979    0.0000 H   0  0  0  0  0  0  0  0  0  0  0  0
   10.0801   -1.9254    0.0000 H   0  0  0  0  0  0  0  0  0  0  0  0
    8.7047    0.4569    0.0000 H   0  0  0  0  0  0  0  0  0  0  0  0
    8.1495   -0.1597    0.0000 H   0  0  0  0  0  0  0  0  0  0  0  0
   10.6625   -1.2786    0.0000 H   0  0  0  0  0  0  0  0  0  0  0  0
   10.7492   -0.4534    0.0000 H   0  0  0  0  0  0  0  0  0  0  0  0
   10.3140    0.3004    0.0000 H   0  0  0  0  0  0  0  0  0  0  0  0
    9.5561    0.6378    0.0000 H   0  0  0  0  0  0  0  0  0  0  0  0
    7.7990   -2.2742    0.0000 H   0  0  0  0  0  0  0  0  0  0  0  0
    2.1356   -1.9258    0.0000 H   0  0  0  0  0  0  0  0  0  0  0  0
    2.0000    2.8567    0.0000 H   0  0  0  0  0  0  0  0  0  0  0  0
    4.6911   -3.0636    0.0000 H   0  0  0  0  0  0  0  0  0  0  0  0
    4.6639    0.1558    0.0000 H   0  0  0  0  0  0  0  0  0  0  0  0
    6.0669    0.9658    0.0000 H   0  0  0  0  0  0  0  0  0  0  0  0
  1 12  1  0  0  0  0
  1 46  1  0  0  0  0
  2 13  1  0  0  0  0
  2 21  1  0  0  0  0
  2 44  1  0  0  0  0
  3  4  1  0  0  0  0
  3 18  1  0  0  0  0
  3 45  1  0  0  0  0
  4 22  2  0  0  0  0
  5 20  2  0  0  0  0
  5 21  1  0  0  0  0
  6 21  2  0  0  0  0
  6 24  1  0  0  0  0
  7  8  1  0  0  0  0
  7  9  1  0  0  0  0
  7 18  1  0  0  0  0
  7 25  1  0  0  0  0
  8 10  1  0  0  0  0
  8 26  1  0  0  0  0
  8 27  1  0  0  0  0
  9 11  1  0  0  0  0
  9 28  1  0  0  0  0
  9 29  1  0  0  0  0
 10 12  1  0  0  0  0
 10 30  1  0  0  0  0
 10 31  1  0  0  0  0
 11 12  1  0  0  0  0
 11 32  1  0  0  0  0
 11 33  1  0  0  0  0
 12 34  1  0  0  0  0
 13 14  1  0  0  0  0
 13 15  1  0  0  0  0
 13 35  1  0  0  0  0
 14 16  1  0  0  0  0
 14 36  1  0  0  0  0
 14 37  1  0  0  0  0
 15 17  1  0  0  0  0
 15 38  1  0  0  0  0
 15 39  1  0  0  0  0
 16 17  1  0  0  0  0
 16 40  1  0  0  0  0
 16 41  1  0  0  0  0
 17 42  1  0  0  0  0
 17 43  1  0  0  0  0
 18 19  2  0  0  0  0
 19 20  1  0  0  0  0
 19 22  1  0  0  0  0
 20 23  1  0  0  0  0
 22 47  1  0  0  0  0
 23 24  2  0  0  0  0
 23 48  1  0  0  0  0
 24 49  1  0  0  0  0
M  END
> <PUBCHEM_COMPOUND_CID>
44591740

> <PUBCHEM_COMPOUND_CANONICALIZED>
1

> <PUBCHEM_CACTVS_COMPLEXITY>
395

> <PUBCHEM_CACTVS_HBOND_ACCEPTOR>
5

> <PUBCHEM_CACTVS_HBOND_DONOR>
3

> <PUBCHEM_CACTVS_ROTATABLE_BOND>
4

> <PUBCHEM_CACTVS_SUBSKEYS>
AAADceB7oAAAAAAAAAAAAAAAAAAAAeIAAAA8QAAAAAAAAAAB4AAAHgAYCAAADTzhngY9kJbrEgCiAzRnZACShCkxgqAZ+aA4ZJiIOKLA2MGE5AhsmAJIyCeQ0OEOAAAAAAAAAABAAAAAAAAAAAAAAAAAAA==

> <PUBCHEM_IUPAC_OPENEYE_NAME>
4-[4-[2-(cyclopentylamino)pyrimidin-4-yl]-1H-pyrazol-5-yl]cyclohexanol

> <PUBCHEM_IUPAC_CAS_NAME>
4-[4-[2-(cyclopentylamino)-4-pyrimidinyl]-1H-pyrazol-5-yl]-1-cyclohexanol

> <PUBCHEM_IUPAC_NAME_MARKUP>
4-[4-[2-(cyclopentylamino)pyrimidin-4-yl]-1<I>H</I>-pyrazol-5-yl]cyclohexan-1-ol

> <PUBCHEM_IUPAC_NAME>
4-[4-[2-(cyclopentylamino)pyrimidin-4-yl]-1H-pyrazol-5-yl]cyclohexan-1-ol

> <PUBCHEM_IUPAC_SYSTEMATIC_NAME>
4-[4-[2-(cyclopentylamino)pyrimidin-4-yl]-1H-pyrazol-5-yl]cyclohexan-1-ol

> <PUBCHEM_IUPAC_TRADITIONAL_NAME>
4-[4-[2-(cyclopentylamino)pyrimidin-4-yl]-1H-pyrazol-5-yl]cyclohexanol

> <PUBCHEM_IUPAC_INCHI>
InChI=1S/C18H25N5O/c24-14-7-5-12(6-8-14)17-15(11-20-23-17)16-9-10-19-18(22-16)21-13-3-1-2-4-13/h9-14,24H,1-8H2,(H,20,23)(H,19,21,22)

> <PUBCHEM_IUPAC_INCHIKEY>
JCJAEEODSKNKTC-UHFFFAOYSA-N

> <PUBCHEM_XLOGP3_AA>
2.4

> <PUBCHEM_EXACT_MASS>
327.20591044

> <PUBCHEM_MOLECULAR_FORMULA>
C18H25N5O

> <PUBCHEM_MOLECULAR_WEIGHT>
327.4

> <PUBCHEM_SMILES>
C1CCC(C1)NC2=NC=CC(=N2)C3=C(NN=C3)C4CCC(CC4)O

> <PUBCHEM_OPENEYE_CAN_SMILES>
C1CCC(C1)NC2=NC=CC(=N2)C3=C(NN=C3)C4CCC(CC4)O

> <PUBCHEM_OPENEYE_ISO_SMILES>
C1CCC(C1)NC2=NC=CC(=N2)C3=C(NN=C3)C4CCC(CC4)O

> <PUBCHEM_CACTVS_TPSA>
86.7

> <PUBCHEM_MONOISOTOPIC_WEIGHT>
327.20591044

> <PUBCHEM_TOTAL_CHARGE>
0

> <PUBCHEM_HEAVY_ATOM_COUNT>
24

> <PUBCHEM_ATOM_DEF_STEREO_COUNT>
0

> <PUBCHEM_ATOM_UDEF_STEREO_COUNT>
0

> <PUBCHEM_BOND_DEF_STEREO_COUNT>
0

> <PUBCHEM_BOND_UDEF_STEREO_COUNT>
0

> <PUBCHEM_ISOTOPIC_ATOM_COUNT>
0

> <PUBCHEM_COMPONENT_COUNT>
1

> <PUBCHEM_CACTVS_TAUTO_COUNT>
-1

> <PUBCHEM_COORDINATE_TYPE>
1
5
255

> <PUBCHEM_BONDANNOTATIONS>
18  19  8
19  22  8
20  23  8
23  24  8
3  18  8
3  4  8
4  22  8
5  20  8
5  21  8
6  21  8
6  24  8

$$$$
