24905232
  -OEChem-03192523462D

 41 44  0     0  0  0  0  0  0999 V2000
    3.7899    1.0826    0.0000 N   0  0  0  0  0  0  0  0  0  0  0  0
    4.7617    0.8734    0.0000 N   0  0  0  0  0  0  0  0  0  0  0  0
    2.3107    0.0177    0.0000 N   0  0  0  0  0  0  0  0  0  0  0  0
    2.6678   -1.6772    0.0000 N   0  0  0  0  0  0  0  0  0  0  0  0
    4.3142   -2.2152    0.0000 N   0  0  0  0  0  0  0  0  0  0  0  0
    8.3568   -2.1500    0.0000 N   0  0  0  0  0  0  0  0  0  0  0  0
   10.1270   -2.1394    0.0000 N   0  0  0  0  0  0  0  0  0  0  0  0
    3.3864    1.9976    0.0000 C   0  0  0  0  0  0  0  0  0  0  0  0
    3.9570   -0.5204    0.0000 C   0  0  0  0  0  0  0  0  0  0  0  0
    3.2892    0.2239    0.0000 C   0  0  0  0  0  0  0  0  0  0  0  0
    4.8648   -0.1153    0.0000 C   0  0  0  0  0  0  0  0  0  0  0  0
    5.7308   -0.6153    0.0000 C   0  0  0  0  0  0  0  0  0  0  0  0
    3.9769    2.8046    0.0000 C   0  0  0  0  0  0  0  0  0  0  0  0
    2.3922    2.1056    0.0000 C   0  0  0  0  0  0  0  0  0  0  0  0
    3.6464   -1.4709    0.0000 C   0  0  0  0  0  0  0  0  0  0  0  0
    6.5968   -0.1153    0.0000 C   0  0  0  0  0  0  0  0  0  0  0  0
    7.4629   -0.6153    0.0000 C   0  0  0  0  0  0  0  0  0  0  0  0
    5.7308   -1.6153    0.0000 C   0  0  0  0  0  0  0  0  0  0  0  0
    7.4629   -1.6153    0.0000 C   0  0  0  0  0  0  0  0  0  0  0  0
    6.5968   -2.1153    0.0000 C   0  0  0  0  0  0  0  0  0  0  0  0
    2.0000   -0.9328    0.0000 C   0  0  0  0  0  0  0  0  0  0  0  0
    8.3568   -0.0806    0.0000 C   0  0  0  0  0  0  0  0  0  0  0  0
    9.2629   -0.5945    0.0000 C   0  0  0  0  0  0  0  0  0  0  0  0
    9.2629   -1.6361    0.0000 C   0  0  0  0  0  0  0  0  0  0  0  0
    3.0202    1.4972    0.0000 H   0  0  0  0  0  0  0  0  0  0  0  0
    4.4773    2.4384    0.0000 H   0  0  0  0  0  0  0  0  0  0  0  0
    4.3431    3.3049    0.0000 H   0  0  0  0  0  0  0  0  0  0  0  0
    3.4766    3.1707    0.0000 H   0  0  0  0  0  0  0  0  0  0  0  0
    2.4591    2.7219    0.0000 H   0  0  0  0  0  0  0  0  0  0  0  0
    1.7758    2.1725    0.0000 H   0  0  0  0  0  0  0  0  0  0  0  0
    2.3253    1.4892    0.0000 H   0  0  0  0  0  0  0  0  0  0  0  0
    6.5968    0.5047    0.0000 H   0  0  0  0  0  0  0  0  0  0  0  0
    5.1939   -1.9253    0.0000 H   0  0  0  0  0  0  0  0  0  0  0  0
    6.5968   -2.7353    0.0000 H   0  0  0  0  0  0  0  0  0  0  0  0
    1.3933   -1.0607    0.0000 H   0  0  0  0  0  0  0  0  0  0  0  0
    8.3496    0.5393    0.0000 H   0  0  0  0  0  0  0  0  0  0  0  0
    4.1216   -2.8046    0.0000 H   0  0  0  0  0  0  0  0  0  0  0  0
    4.9209   -2.0874    0.0000 H   0  0  0  0  0  0  0  0  0  0  0  0
    9.7986   -0.2824    0.0000 H   0  0  0  0  0  0  0  0  0  0  0  0
   10.6651   -1.8315    0.0000 H   0  0  0  0  0  0  0  0  0  0  0  0
   10.1246   -2.7594    0.0000 H   0  0  0  0  0  0  0  0  0  0  0  0
  1  2  1  0  0  0  0
  1  8  1  0  0  0  0
  1 10  1  0  0  0  0
  2 11  2  0  0  0  0
  3 10  2  0  0  0  0
  3 21  1  0  0  0  0
  4 15  1  0  0  0  0
  4 21  2  0  0  0  0
  5 15  1  0  0  0  0
  5 37  1  0  0  0  0
  5 38  1  0  0  0  0
  6 19  1  0  0  0  0
  6 24  2  0  0  0  0
  7 24  1  0  0  0  0
  7 40  1  0  0  0  0
  7 41  1  0  0  0  0
  8 13  1  0  0  0  0
  8 14  1  0  0  0  0
  8 25  1  0  0  0  0
  9 10  1  0  0  0  0
  9 11  1  0  0  0  0
  9 15  2  0  0  0  0
 11 12  1  0  0  0  0
 12 16  2  0  0  0  0
 12 18  1  0  0  0  0
 13 26  1  0  0  0  0
 13 27  1  0  0  0  0
 13 28  1  0  0  0  0
 14 29  1  0  0  0  0
 14 30  1  0  0  0  0
 14 31  1  0  0  0  0
 16 17  1  0  0  0  0
 16 32  1  0  0  0  0
 17 19  2  0  0  0  0
 17 22  1  0  0  0  0
 18 20  2  0  0  0  0
 18 33  1  0  0  0  0
 19 20  1  0  0  0  0
 20 34  1  0  0  0  0
 21 35  1  0  0  0  0
 22 23  2  0  0  0  0
 22 36  1  0  0  0  0
 23 24  1  0  0  0  0
 23 39  1  0  0  0  0
M  END
> <PUBCHEM_COMPOUND_CID>
24905232

> <PUBCHEM_COMPOUND_CANONICALIZED>
1

> <PUBCHEM_CACTVS_COMPLEXITY>
445

> <PUBCHEM_CACTVS_HBOND_ACCEPTOR>
6

> <PUBCHEM_CACTVS_HBOND_DONOR>
2

> <PUBCHEM_CACTVS_ROTATABLE_BOND>
2

> <PUBCHEM_CACTVS_SUBSKEYS>
AAADceB7gAAAAAAAAAAAAAAAAAAAAWAAAAA8WIAAAAAAAFix/gAAHAAYAAAADCjBHwQ38P5IEACiAyZjZACShCsxgqAd2CA4ZJiIKOLA2dGEpAhomALIyCcQgMAOCAACAAACAAAQAAQAAAQAAAAAAAAAAA==

> <PUBCHEM_IUPAC_OPENEYE_NAME>
6-(4-amino-1-isopropyl-pyrazolo[3,4-d]pyrimidin-3-yl)quinolin-2-amine

> <PUBCHEM_IUPAC_CAS_NAME>
6-(4-amino-1-propan-2-yl-3-pyrazolo[3,4-d]pyrimidinyl)-2-quinolinamine

> <PUBCHEM_IUPAC_NAME_MARKUP>
6-(4-amino-1-propan-2-ylpyrazolo[3,4-d]pyrimidin-3-yl)quinolin-2-amine

> <PUBCHEM_IUPAC_NAME>
6-(4-amino-1-propan-2-ylpyrazolo[3,4-d]pyrimidin-3-yl)quinolin-2-amine

> <PUBCHEM_IUPAC_SYSTEMATIC_NAME>
6-(4-azanyl-1-propan-2-yl-pyrazolo[3,4-d]pyrimidin-3-yl)quinolin-2-amine

> <PUBCHEM_IUPAC_TRADITIONAL_NAME>
[6-(4-amino-1-isopropyl-pyrazolo[3,4-d]pyrimidin-3-yl)-2-quinolyl]amine

> <PUBCHEM_IUPAC_INCHI>
InChI=1S/C17H17N7/c1-9(2)24-17-14(16(19)20-8-21-17)15(23-24)11-3-5-12-10(7-11)4-6-13(18)22-12/h3-9H,1-2H3,(H2,18,22)(H2,19,20,21)

> <PUBCHEM_IUPAC_INCHIKEY>
ZGBQFYGLPMXTSZ-UHFFFAOYSA-N

> <PUBCHEM_XLOGP3_AA>
2.1

> <PUBCHEM_EXACT_MASS>
319.15454357

> <PUBCHEM_MOLECULAR_FORMULA>
C17H17N7

> <PUBCHEM_MOLECULAR_WEIGHT>
319.4

> <PUBCHEM_SMILES>
CC(C)N1C2=NC=NC(=C2C(=N1)C3=CC4=C(C=C3)N=C(C=C4)N)N

> <PUBCHEM_OPENEYE_CAN_SMILES>
CC(C)N1C2=NC=NC(=C2C(=N1)C3=CC4=C(C=C3)N=C(C=C4)N)N

> <PUBCHEM_OPENEYE_ISO_SMILES>
CC(C)N1C2=NC=NC(=C2C(=N1)C3=CC4=C(C=C3)N=C(C=C4)N)N

> <PUBCHEM_CACTVS_TPSA>
109

> <PUBCHEM_MONOISOTOPIC_WEIGHT>
319.15454357

> <PUBCHEM_TOTAL_CHARGE>
0

> <PUBCHEM_HEAVY_ATOM_COUNT>
24

> <PUBCHEM_ATOM_DEF_STEREO_COUNT>
0

> <PUBCHEM_ATOM_UDEF_STEREO_COUNT>
0

> <PUBCHEM_BOND_DEF_STEREO_COUNT>
0

> <PUBCHEM_BOND_UDEF_STEREO_COUNT>
0

> <PUBCHEM_ISOTOPIC_ATOM_COUNT>
0

> <PUBCHEM_COMPONENT_COUNT>
1

> <PUBCHEM_CACTVS_TAUTO_COUNT>
-1

> <PUBCHEM_COORDINATE_TYPE>
1
5
255

> <PUBCHEM_BONDANNOTATIONS>
1  10  8
1  2  8
12  16  8
12  18  8
16  17  8
17  19  8
17  22  8
18  20  8
19  20  8
2  11  8
22  23  8
23  24  8
3  10  8
3  21  8
4  15  8
4  21  8
6  19  8
6  24  8
9  10  8
9  11  8
9  15  8

$$$$
