2428
  -OEChem-03202507142D

 31 34  0     0  0  0  0  0  0999 V2000
    2.8949    3.0445    0.0000 Br  0  0  0  0  0  0  0  0  0  0  0  0
    8.1528   -1.2052    0.0000 N   0  0  0  0  0  0  0  0  0  0  0  0
    4.5921    0.0247    0.0000 N   0  0  0  0  0  0  0  0  0  0  0  0
    8.1528   -2.8146    0.0000 N   0  0  0  0  0  0  0  0  0  0  0  0
    4.5806   -3.0445    0.0000 N   0  0  0  0  0  0  0  0  0  0  0  0
    3.6745   -1.4891    0.0000 N   0  0  0  0  0  0  0  0  0  0  0  0
    5.4745   -1.5099    0.0000 C   0  0  0  0  0  0  0  0  0  0  0  0
    7.2066   -1.5099    0.0000 C   0  0  0  0  0  0  0  0  0  0  0  0
    5.4745   -2.5099    0.0000 C   0  0  0  0  0  0  0  0  0  0  0  0
    7.2066   -2.5099    0.0000 C   0  0  0  0  0  0  0  0  0  0  0  0
    6.3405   -1.0099    0.0000 C   0  0  0  0  0  0  0  0  0  0  0  0
    4.5806   -0.9752    0.0000 C   0  0  0  0  0  0  0  0  0  0  0  0
    6.3405   -3.0099    0.0000 C   0  0  0  0  0  0  0  0  0  0  0  0
    3.7319    0.5347    0.0000 C   0  0  0  0  0  0  0  0  0  0  0  0
    8.7364   -2.0099    0.0000 C   0  0  0  0  0  0  0  0  0  0  0  0
    3.6745   -2.5307    0.0000 C   0  0  0  0  0  0  0  0  0  0  0  0
    3.7435    1.5346    0.0000 C   0  0  0  0  0  0  0  0  0  0  0  0
    2.8602    0.0447    0.0000 C   0  0  0  0  0  0  0  0  0  0  0  0
    2.8833    2.0446    0.0000 C   0  0  0  0  0  0  0  0  0  0  0  0
    2.0000    0.5547    0.0000 C   0  0  0  0  0  0  0  0  0  0  0  0
    2.0116    1.5547    0.0000 C   0  0  0  0  0  0  0  0  0  0  0  0
    6.3405   -0.3899    0.0000 H   0  0  0  0  0  0  0  0  0  0  0  0
    6.3405   -3.6299    0.0000 H   0  0  0  0  0  0  0  0  0  0  0  0
    8.3454   -0.6158    0.0000 H   0  0  0  0  0  0  0  0  0  0  0  0
    5.1326    0.3285    0.0000 H   0  0  0  0  0  0  0  0  0  0  0  0
    9.3564   -2.0099    0.0000 H   0  0  0  0  0  0  0  0  0  0  0  0
    3.1388   -2.8428    0.0000 H   0  0  0  0  0  0  0  0  0  0  0  0
    4.2840    1.8384    0.0000 H   0  0  0  0  0  0  0  0  0  0  0  0
    2.8530   -0.5752    0.0000 H   0  0  0  0  0  0  0  0  0  0  0  0
    1.4595    0.2510    0.0000 H   0  0  0  0  0  0  0  0  0  0  0  0
    1.4782    1.8708    0.0000 H   0  0  0  0  0  0  0  0  0  0  0  0
  1 19  1  0  0  0  0
  2  8  1  0  0  0  0
  2 15  1  0  0  0  0
  2 24  1  0  0  0  0
  3 12  1  0  0  0  0
  3 14  1  0  0  0  0
  3 25  1  0  0  0  0
  4 10  1  0  0  0  0
  4 15  2  0  0  0  0
  5  9  1  0  0  0  0
  5 16  2  0  0  0  0
  6 12  2  0  0  0  0
  6 16  1  0  0  0  0
  7  9  1  0  0  0  0
  7 11  2  0  0  0  0
  7 12  1  0  0  0  0
  8 10  2  0  0  0  0
  8 11  1  0  0  0  0
  9 13  2  0  0  0  0
 10 13  1  0  0  0  0
 11 22  1  0  0  0  0
 13 23  1  0  0  0  0
 14 17  2  0  0  0  0
 14 18  1  0  0  0  0
 15 26  1  0  0  0  0
 16 27  1  0  0  0  0
 17 19  1  0  0  0  0
 17 28  1  0  0  0  0
 18 20  2  0  0  0  0
 18 29  1  0  0  0  0
 19 21  2  0  0  0  0
 20 21  1  0  0  0  0
 20 30  1  0  0  0  0
 21 31  1  0  0  0  0
M  END
> <PUBCHEM_COMPOUND_CID>
2428

> <PUBCHEM_COMPOUND_CANONICALIZED>
1

> <PUBCHEM_CACTVS_COMPLEXITY>
368

> <PUBCHEM_CACTVS_HBOND_ACCEPTOR>
4

> <PUBCHEM_CACTVS_HBOND_DONOR>
2

> <PUBCHEM_CACTVS_ROTATABLE_BOND>
2

> <PUBCHEM_CACTVS_SUBSKEYS>
AAADccBzgAAAEAAAAAAAAAAAAAAAAWAAAAA8YIAAAAAAAFix/gAAHABQAAABrAiBHgQ18PbJkACgAyZjZACCgC2xEqQJ2aA4dLiIaOLA2dGUJAhokALIyjcQgAAOCACAQAUCACAQAQCACgQAQAAAAAAAAA==

> <PUBCHEM_IUPAC_OPENEYE_NAME>
N-(3-bromophenyl)-1H-imidazo[4,5-g]quinazolin-8-amine

> <PUBCHEM_IUPAC_CAS_NAME>
N-(3-bromophenyl)-1H-imidazo[4,5-g]quinazolin-8-amine

> <PUBCHEM_IUPAC_NAME_MARKUP>
<I>N</I>-(3-bromophenyl)-1<I>H</I>-imidazo[4,5-g]quinazolin-8-amine

> <PUBCHEM_IUPAC_NAME>
N-(3-bromophenyl)-1H-imidazo[4,5-g]quinazolin-8-amine

> <PUBCHEM_IUPAC_SYSTEMATIC_NAME>
N-(3-bromophenyl)-1H-imidazo[4,5-g]quinazolin-8-amine

> <PUBCHEM_IUPAC_TRADITIONAL_NAME>
(3-bromophenyl)-(1H-imidazo[4,5-g]quinazolin-8-yl)amine

> <PUBCHEM_IUPAC_INCHI>
InChI=1S/C15H10BrN5/c16-9-2-1-3-10(4-9)21-15-11-5-13-14(19-7-18-13)6-12(11)17-8-20-15/h1-8H,(H,18,19)(H,17,20,21)

> <PUBCHEM_IUPAC_INCHIKEY>
BZHDPIVTQKXAQQ-UHFFFAOYSA-N

> <PUBCHEM_XLOGP3_AA>
3.7

> <PUBCHEM_EXACT_MASS>
339.01196

> <PUBCHEM_MOLECULAR_FORMULA>
C15H10BrN5

> <PUBCHEM_MOLECULAR_WEIGHT>
340.18

> <PUBCHEM_SMILES>
C1=CC(=CC(=C1)Br)NC2=NC=NC3=CC4=C(C=C32)NC=N4

> <PUBCHEM_OPENEYE_CAN_SMILES>
C1=CC(=CC(=C1)Br)NC2=NC=NC3=CC4=C(C=C32)NC=N4

> <PUBCHEM_OPENEYE_ISO_SMILES>
C1=CC(=CC(=C1)Br)NC2=NC=NC3=CC4=C(C=C32)NC=N4

> <PUBCHEM_CACTVS_TPSA>
66.5

> <PUBCHEM_MONOISOTOPIC_WEIGHT>
339.01196

> <PUBCHEM_TOTAL_CHARGE>
0

> <PUBCHEM_HEAVY_ATOM_COUNT>
21

> <PUBCHEM_ATOM_DEF_STEREO_COUNT>
0

> <PUBCHEM_ATOM_UDEF_STEREO_COUNT>
0

> <PUBCHEM_BOND_DEF_STEREO_COUNT>
0

> <PUBCHEM_BOND_UDEF_STEREO_COUNT>
0

> <PUBCHEM_ISOTOPIC_ATOM_COUNT>
0

> <PUBCHEM_COMPONENT_COUNT>
1

> <PUBCHEM_CACTVS_TAUTO_COUNT>
-1

> <PUBCHEM_COORDINATE_TYPE>
1
5
255

> <PUBCHEM_BONDANNOTATIONS>
10  13  8
14  17  8
14  18  8
17  19  8
18  20  8
19  21  8
2  15  8
2  8  8
20  21  8
4  10  8
4  15  8
5  16  8
5  9  8
6  12  8
6  16  8
7  11  8
7  12  8
7  9  8
8  10  8
8  11  8
9  13  8

$$$$
