44565015
  -OEChem-03202506422D

 38 42  0     0  0  0  0  0  0999 V2000
    4.9718   -0.2917    0.0000 S   0  0  0  0  0  0  0  0  0  0  0  0
    8.5390    0.6970    0.0000 N   0  0  0  0  0  0  0  0  0  0  0  0
   10.3512   -2.1077    0.0000 N   0  0  0  0  0  0  0  0  0  0  0  0
    4.1671    1.1021    0.0000 N   0  0  0  0  0  0  0  0  0  0  0  0
    7.6730   -0.8030    0.0000 N   0  0  0  0  0  0  0  0  0  0  0  0
    8.5390   -2.3030    0.0000 N   0  0  0  0  0  0  0  0  0  0  0  0
    9.4050   -0.8030    0.0000 C   0  0  0  0  0  0  0  0  0  0  0  0
    5.9409    1.1970    0.0000 C   0  0  0  0  0  0  0  0  0  0  0  0
    7.6730    1.1970    0.0000 C   0  0  0  0  0  0  0  0  0  0  0  0
    8.5390   -0.3030    0.0000 C   0  0  0  0  0  0  0  0  0  0  0  0
    6.8069    0.6970    0.0000 C   0  0  0  0  0  0  0  0  0  0  0  0
    5.0749    0.6970    0.0000 C   0  0  0  0  0  0  0  0  0  0  0  0
    9.4050   -1.8030    0.0000 C   0  0  0  0  0  0  0  0  0  0  0  0
    4.0000   -0.5009    0.0000 C   0  0  0  0  0  0  0  0  0  0  0  0
    3.5000    0.3651    0.0000 C   0  0  0  0  0  0  0  0  0  0  0  0
   10.3512   -0.4982    0.0000 C   0  0  0  0  0  0  0  0  0  0  0  0
    5.9409    2.1970    0.0000 C   0  0  0  0  0  0  0  0  0  0  0  0
    7.6730    2.1970    0.0000 C   0  0  0  0  0  0  0  0  0  0  0  0
    6.8069    2.6970    0.0000 C   0  0  0  0  0  0  0  0  0  0  0  0
   10.9348   -1.3030    0.0000 C   0  0  0  0  0  0  0  0  0  0  0  0
    3.5000   -1.3669    0.0000 C   0  0  0  0  0  0  0  0  0  0  0  0
    2.5000    0.3651    0.0000 C   0  0  0  0  0  0  0  0  0  0  0  0
    7.6730   -1.8030    0.0000 C   0  0  0  0  0  0  0  0  0  0  0  0
    2.5000   -1.3669    0.0000 C   0  0  0  0  0  0  0  0  0  0  0  0
    2.0000   -0.5009    0.0000 C   0  0  0  0  0  0  0  0  0  0  0  0
    6.8069    0.0770    0.0000 H   0  0  0  0  0  0  0  0  0  0  0  0
    9.0759    1.0070    0.0000 H   0  0  0  0  0  0  0  0  0  0  0  0
   10.5438    0.0911    0.0000 H   0  0  0  0  0  0  0  0  0  0  0  0
    5.4040    2.5070    0.0000 H   0  0  0  0  0  0  0  0  0  0  0  0
    8.2099    2.5070    0.0000 H   0  0  0  0  0  0  0  0  0  0  0  0
   10.5438   -2.6970    0.0000 H   0  0  0  0  0  0  0  0  0  0  0  0
    6.8069    3.3170    0.0000 H   0  0  0  0  0  0  0  0  0  0  0  0
   11.5548   -1.3030    0.0000 H   0  0  0  0  0  0  0  0  0  0  0  0
    3.8100   -1.9039    0.0000 H   0  0  0  0  0  0  0  0  0  0  0  0
    2.1900    0.9021    0.0000 H   0  0  0  0  0  0  0  0  0  0  0  0
    7.1360   -2.1130    0.0000 H   0  0  0  0  0  0  0  0  0  0  0  0
    2.1900   -1.9039    0.0000 H   0  0  0  0  0  0  0  0  0  0  0  0
    1.3800   -0.5009    0.0000 H   0  0  0  0  0  0  0  0  0  0  0  0
  1 12  1  0  0  0  0
  1 14  1  0  0  0  0
  2  9  1  0  0  0  0
  2 10  1  0  0  0  0
  2 27  1  0  0  0  0
  3 13  1  0  0  0  0
  3 20  1  0  0  0  0
  3 31  1  0  0  0  0
  4 12  2  0  0  0  0
  4 15  1  0  0  0  0
  5 10  2  0  0  0  0
  5 23  1  0  0  0  0
  6 13  1  0  0  0  0
  6 23  2  0  0  0  0
  7 10  1  0  0  0  0
  7 13  2  0  0  0  0
  7 16  1  0  0  0  0
  8 11  2  0  0  0  0
  8 12  1  0  0  0  0
  8 17  1  0  0  0  0
  9 11  1  0  0  0  0
  9 18  2  0  0  0  0
 11 26  1  0  0  0  0
 14 15  1  0  0  0  0
 14 21  2  0  0  0  0
 15 22  2  0  0  0  0
 16 20  2  0  0  0  0
 16 28  1  0  0  0  0
 17 19  2  0  0  0  0
 17 29  1  0  0  0  0
 18 19  1  0  0  0  0
 18 30  1  0  0  0  0
 19 32  1  0  0  0  0
 20 33  1  0  0  0  0
 21 24  1  0  0  0  0
 21 34  1  0  0  0  0
 22 25  1  0  0  0  0
 22 35  1  0  0  0  0
 23 36  1  0  0  0  0
 24 25  2  0  0  0  0
 24 37  1  0  0  0  0
 25 38  1  0  0  0  0
M  END
> <PUBCHEM_COMPOUND_CID>
44565015

> <PUBCHEM_COMPOUND_CANONICALIZED>
1

> <PUBCHEM_CACTVS_COMPLEXITY>
463

> <PUBCHEM_CACTVS_HBOND_ACCEPTOR>
5

> <PUBCHEM_CACTVS_HBOND_DONOR>
2

> <PUBCHEM_CACTVS_ROTATABLE_BOND>
3

> <PUBCHEM_CACTVS_SUBSKEYS>
AAADccB7gABAAAAAAAAAAAAAAAAAAWLAAAA8YIAAAAAAAFgB/gAAHAQQAAAADAjBXwQ98f7JkAikAzZnZACD8KnxCrhJ2bw4ZJiIKOLg2dGEJAhokALoyCcQgAAOAAAAQAAAAQAAAACAAAACAAAAAAAAAA==

> <PUBCHEM_IUPAC_OPENEYE_NAME>
N-[3-(1,3-benzothiazol-2-yl)phenyl]-7H-pyrrolo[2,3-d]pyrimidin-4-amine

> <PUBCHEM_IUPAC_CAS_NAME>
N-[3-(1,3-benzothiazol-2-yl)phenyl]-7H-pyrrolo[2,3-d]pyrimidin-4-amine

> <PUBCHEM_IUPAC_NAME_MARKUP>
<I>N</I>-[3-(1,3-benzothiazol-2-yl)phenyl]-7<I>H</I>-pyrrolo[2,3-d]pyrimidin-4-amine

> <PUBCHEM_IUPAC_NAME>
N-[3-(1,3-benzothiazol-2-yl)phenyl]-7H-pyrrolo[2,3-d]pyrimidin-4-amine

> <PUBCHEM_IUPAC_SYSTEMATIC_NAME>
N-[3-(1,3-benzothiazol-2-yl)phenyl]-7H-pyrrolo[2,3-d]pyrimidin-4-amine

> <PUBCHEM_IUPAC_TRADITIONAL_NAME>
[3-(1,3-benzothiazol-2-yl)phenyl]-(7H-pyrrolo[2,3-d]pyrimidin-4-yl)amine

> <PUBCHEM_IUPAC_INCHI>
InChI=1S/C19H13N5S/c1-2-7-16-15(6-1)24-19(25-16)12-4-3-5-13(10-12)23-18-14-8-9-20-17(14)21-11-22-18/h1-11H,(H2,20,21,22,23)

> <PUBCHEM_IUPAC_INCHIKEY>
BMGGDZTXJBWQCN-UHFFFAOYSA-N

> <PUBCHEM_XLOGP3_AA>
4.7

> <PUBCHEM_EXACT_MASS>
343.08916661

> <PUBCHEM_MOLECULAR_FORMULA>
C19H13N5S

> <PUBCHEM_MOLECULAR_WEIGHT>
343.4

> <PUBCHEM_SMILES>
C1=CC=C2C(=C1)N=C(S2)C3=CC(=CC=C3)NC4=NC=NC5=C4C=CN5

> <PUBCHEM_OPENEYE_CAN_SMILES>
C1=CC=C2C(=C1)N=C(S2)C3=CC(=CC=C3)NC4=NC=NC5=C4C=CN5

> <PUBCHEM_OPENEYE_ISO_SMILES>
C1=CC=C2C(=C1)N=C(S2)C3=CC(=CC=C3)NC4=NC=NC5=C4C=CN5

> <PUBCHEM_CACTVS_TPSA>
94.7

> <PUBCHEM_MONOISOTOPIC_WEIGHT>
343.08916661

> <PUBCHEM_TOTAL_CHARGE>
0

> <PUBCHEM_HEAVY_ATOM_COUNT>
25

> <PUBCHEM_ATOM_DEF_STEREO_COUNT>
0

> <PUBCHEM_ATOM_UDEF_STEREO_COUNT>
0

> <PUBCHEM_BOND_DEF_STEREO_COUNT>
0

> <PUBCHEM_BOND_UDEF_STEREO_COUNT>
0

> <PUBCHEM_ISOTOPIC_ATOM_COUNT>
0

> <PUBCHEM_COMPONENT_COUNT>
1

> <PUBCHEM_CACTVS_TAUTO_COUNT>
-1

> <PUBCHEM_COORDINATE_TYPE>
1
5
255

> <PUBCHEM_BONDANNOTATIONS>
1  12  8
1  14  8
14  15  8
14  21  8
15  22  8
16  20  8
17  19  8
18  19  8
21  24  8
22  25  8
24  25  8
3  13  8
3  20  8
4  12  8
4  15  8
5  10  8
5  23  8
6  13  8
6  23  8
7  10  8
7  13  8
7  16  8
8  11  8
8  17  8
9  11  8
9  18  8

$$$$
