9811611
  -OEChem-03202505042D

 56 58  0     0  0  0  0  0  0999 V2000
    3.7320   -7.7691    0.0000 Br  0  0  0  0  0  0  0  0  0  0  0  0
    4.0981   -0.7303    0.0000 S   0  0  0  0  0  0  0  0  0  0  0  0
    5.4641   -4.7691    0.0000 F   0  0  0  0  0  0  0  0  0  0  0  0
    2.0000   -4.7691    0.0000 F   0  0  0  0  0  0  0  0  0  0  0  0
    4.2846    1.0968    0.0000 O   0  0  0  0  0  0  0  0  0  0  0  0
    4.5981   -3.2691    0.0000 O   0  0  0  0  0  0  0  0  0  0  0  0
    6.5661   -2.9685    0.0000 O   0  0  0  0  0  0  0  0  0  0  0  0
    5.8223    6.1600    0.0000 N   0  0  0  0  0  0  0  0  0  0  0  0
    5.8669    1.8013    0.0000 N   0  0  0  0  0  0  0  0  0  0  0  0
    5.6859    0.0787    0.0000 N   0  0  0  0  0  0  0  0  0  0  0  0
    3.7891   -1.6814    0.0000 N   0  0  0  0  0  0  0  0  0  0  0  0
    7.1013   -1.3212    0.0000 N   0  0  0  0  0  0  0  0  0  0  0  0
    6.3223    7.0260    0.0000 C   0  0  0  0  0  0  0  0  0  0  0  0
    4.8441    6.3679    0.0000 C   0  0  0  0  0  0  0  0  0  0  0  0
    5.6531    7.7691    0.0000 C   0  0  0  0  0  0  0  0  0  0  0  0
    4.7396    7.3624    0.0000 C   0  0  0  0  0  0  0  0  0  0  0  0
    6.2290    5.2464    0.0000 C   0  0  0  0  0  0  0  0  0  0  0  0
    5.6412    4.4374    0.0000 C   0  0  0  0  0  0  0  0  0  0  0  0
    6.0480    3.5238    0.0000 C   0  0  0  0  0  0  0  0  0  0  0  0
    5.4602    2.7148    0.0000 C   0  0  0  0  0  0  0  0  0  0  0  0
    5.2791    0.9923    0.0000 C   0  0  0  0  0  0  0  0  0  0  0  0
    5.0981   -0.7303    0.0000 C   0  0  0  0  0  0  0  0  0  0  0  0
    5.4071   -1.6814    0.0000 C   0  0  0  0  0  0  0  0  0  0  0  0
    4.5981   -2.2691    0.0000 C   0  0  0  0  0  0  0  0  0  0  0  0
    3.7320   -3.7691    0.0000 C   0  0  0  0  0  0  0  0  0  0  0  0
    3.7320   -4.7691    0.0000 C   0  0  0  0  0  0  0  0  0  0  0  0
    6.3582   -1.9904    0.0000 C   0  0  0  0  0  0  0  0  0  0  0  0
    4.5981   -5.2691    0.0000 C   0  0  0  0  0  0  0  0  0  0  0  0
    2.8660   -5.2691    0.0000 C   0  0  0  0  0  0  0  0  0  0  0  0
    4.5981   -6.2691    0.0000 C   0  0  0  0  0  0  0  0  0  0  0  0
    2.8660   -6.2691    0.0000 C   0  0  0  0  0  0  0  0  0  0  0  0
    3.7320   -6.7691    0.0000 C   0  0  0  0  0  0  0  0  0  0  0  0
    6.8239    6.6616    0.0000 H   0  0  0  0  0  0  0  0  0  0  0  0
    6.7371    7.4867    0.0000 H   0  0  0  0  0  0  0  0  0  0  0  0
    4.2241    6.3679    0.0000 H   0  0  0  0  0  0  0  0  0  0  0  0
    4.7793    5.7513    0.0000 H   0  0  0  0  0  0  0  0  0  0  0  0
    6.1547    8.1336    0.0000 H   0  0  0  0  0  0  0  0  0  0  0  0
    5.3431    8.3061    0.0000 H   0  0  0  0  0  0  0  0  0  0  0  0
    4.5480    7.9520    0.0000 H   0  0  0  0  0  0  0  0  0  0  0  0
    4.1331    7.2335    0.0000 H   0  0  0  0  0  0  0  0  0  0  0  0
    6.6597    4.8004    0.0000 H   0  0  0  0  0  0  0  0  0  0  0  0
    6.7430    5.5931    0.0000 H   0  0  0  0  0  0  0  0  0  0  0  0
    5.2105    4.8834    0.0000 H   0  0  0  0  0  0  0  0  0  0  0  0
    5.1272    4.0907    0.0000 H   0  0  0  0  0  0  0  0  0  0  0  0
    6.4786    3.0779    0.0000 H   0  0  0  0  0  0  0  0  0  0  0  0
    6.5620    3.8706    0.0000 H   0  0  0  0  0  0  0  0  0  0  0  0
    5.0295    3.1608    0.0000 H   0  0  0  0  0  0  0  0  0  0  0  0
    4.9462    2.3681    0.0000 H   0  0  0  0  0  0  0  0  0  0  0  0
    6.4835    1.7365    0.0000 H   0  0  0  0  0  0  0  0  0  0  0  0
    6.3025    0.0139    0.0000 H   0  0  0  0  0  0  0  0  0  0  0  0
    3.5200   -3.1865    0.0000 H   0  0  0  0  0  0  0  0  0  0  0  0
    3.1215   -3.8768    0.0000 H   0  0  0  0  0  0  0  0  0  0  0  0
    5.1350   -6.5791    0.0000 H   0  0  0  0  0  0  0  0  0  0  0  0
    2.3291   -6.5791    0.0000 H   0  0  0  0  0  0  0  0  0  0  0  0
    7.6910   -1.5128    0.0000 H   0  0  0  0  0  0  0  0  0  0  0  0
    6.9724   -0.7148    0.0000 H   0  0  0  0  0  0  0  0  0  0  0  0
  1 32  1  0  0  0  0
  2 11  1  0  0  0  0
  2 22  1  0  0  0  0
  3 28  1  0  0  0  0
  4 29  1  0  0  0  0
  5 21  2  0  0  0  0
  6 24  1  0  0  0  0
  6 25  1  0  0  0  0
  7 27  2  0  0  0  0
  8 13  1  0  0  0  0
  8 14  1  0  0  0  0
  8 17  1  0  0  0  0
  9 20  1  0  0  0  0
  9 21  1  0  0  0  0
  9 49  1  0  0  0  0
 10 21  1  0  0  0  0
 10 22  1  0  0  0  0
 10 50  1  0  0  0  0
 11 24  2  0  0  0  0
 12 27  1  0  0  0  0
 12 55  1  0  0  0  0
 12 56  1  0  0  0  0
 13 15  1  0  0  0  0
 13 33  1  0  0  0  0
 13 34  1  0  0  0  0
 14 16  1  0  0  0  0
 14 35  1  0  0  0  0
 14 36  1  0  0  0  0
 15 16  1  0  0  0  0
 15 37  1  0  0  0  0
 15 38  1  0  0  0  0
 16 39  1  0  0  0  0
 16 40  1  0  0  0  0
 17 18  1  0  0  0  0
 17 41  1  0  0  0  0
 17 42  1  0  0  0  0
 18 19  1  0  0  0  0
 18 43  1  0  0  0  0
 18 44  1  0  0  0  0
 19 20  1  0  0  0  0
 19 45  1  0  0  0  0
 19 46  1  0  0  0  0
 20 47  1  0  0  0  0
 20 48  1  0  0  0  0
 22 23  2  0  0  0  0
 23 24  1  0  0  0  0
 23 27  1  0  0  0  0
 25 26  1  0  0  0  0
 25 51  1  0  0  0  0
 25 52  1  0  0  0  0
 26 28  2  0  0  0  0
 26 29  1  0  0  0  0
 28 30  1  0  0  0  0
 29 31  2  0  0  0  0
 30 32  2  0  0  0  0
 30 53  1  0  0  0  0
 31 32  1  0  0  0  0
 31 54  1  0  0  0  0
M  END
> <PUBCHEM_COMPOUND_CID>
9811611

> <PUBCHEM_COMPOUND_CANONICALIZED>
1

> <PUBCHEM_CACTVS_COMPLEXITY>
622

> <PUBCHEM_CACTVS_HBOND_ACCEPTOR>
8

> <PUBCHEM_CACTVS_HBOND_DONOR>
3

> <PUBCHEM_CACTVS_ROTATABLE_BOND>
10

> <PUBCHEM_CACTVS_SUBSKEYS>
AAADceB7sYBAEAAAAAAAAAAAAAAAAWLAAAAwAAAAAAAAAAABwAAAHwRQQAABrADh2g4xhZPABACsAiFyUACDCBAlIA0AmLEsTPiMJi7E8ViOPOyu9gvIqneAwCAOAgAAAAAAAAAEAAAAAAAAAAAAAAAAAA==

> <PUBCHEM_IUPAC_OPENEYE_NAME>
3-[(4-bromo-2,6-difluoro-phenyl)methoxy]-5-(4-pyrrolidin-1-ylbutylcarbamoylamino)isothiazole-4-carboxamide

> <PUBCHEM_IUPAC_CAS_NAME>
3-[(4-bromo-2,6-difluorophenyl)methoxy]-5-[[oxo-[4-(1-pyrrolidinyl)butylamino]methyl]amino]-4-isothiazolecarboxamide

> <PUBCHEM_IUPAC_NAME_MARKUP>
3-[(4-bromo-2,6-difluorophenyl)methoxy]-5-(4-pyrrolidin-1-ylbutylcarbamoylamino)-1,2-thiazole-4-carboxamide

> <PUBCHEM_IUPAC_NAME>
3-[(4-bromo-2,6-difluorophenyl)methoxy]-5-(4-pyrrolidin-1-ylbutylcarbamoylamino)-1,2-thiazole-4-carboxamide

> <PUBCHEM_IUPAC_SYSTEMATIC_NAME>
3-[[4-bromanyl-2,6-bis(fluoranyl)phenyl]methoxy]-5-(4-pyrrolidin-1-ylbutylcarbamoylamino)-1,2-thiazole-4-carboxamide

> <PUBCHEM_IUPAC_TRADITIONAL_NAME>
3-(4-bromo-2,6-difluoro-benzyl)oxy-5-(4-pyrrolidinobutylcarbamoylamino)isothiazole-4-carboxamide

> <PUBCHEM_IUPAC_INCHI>
InChI=1S/C20H24BrF2N5O3S/c21-12-9-14(22)13(15(23)10-12)11-31-18-16(17(24)29)19(32-27-18)26-20(30)25-5-1-2-6-28-7-3-4-8-28/h9-10H,1-8,11H2,(H2,24,29)(H2,25,26,30)

> <PUBCHEM_IUPAC_INCHIKEY>
HXHAJRMTJXHJJZ-UHFFFAOYSA-N

> <PUBCHEM_XLOGP3_AA>
3.7

> <PUBCHEM_EXACT_MASS>
531.07513

> <PUBCHEM_MOLECULAR_FORMULA>
C20H24BrF2N5O3S

> <PUBCHEM_MOLECULAR_WEIGHT>
532.4

> <PUBCHEM_SMILES>
C1CCN(C1)CCCCNC(=O)NC2=C(C(=NS2)OCC3=C(C=C(C=C3F)Br)F)C(=O)N

> <PUBCHEM_OPENEYE_CAN_SMILES>
C1CCN(C1)CCCCNC(=O)NC2=C(C(=NS2)OCC3=C(C=C(C=C3F)Br)F)C(=O)N

> <PUBCHEM_OPENEYE_ISO_SMILES>
C1CCN(C1)CCCCNC(=O)NC2=C(C(=NS2)OCC3=C(C=C(C=C3F)Br)F)C(=O)N

> <PUBCHEM_CACTVS_TPSA>
138

> <PUBCHEM_MONOISOTOPIC_WEIGHT>
531.07513

> <PUBCHEM_TOTAL_CHARGE>
0

> <PUBCHEM_HEAVY_ATOM_COUNT>
32

> <PUBCHEM_ATOM_DEF_STEREO_COUNT>
0

> <PUBCHEM_ATOM_UDEF_STEREO_COUNT>
0

> <PUBCHEM_BOND_DEF_STEREO_COUNT>
0

> <PUBCHEM_BOND_UDEF_STEREO_COUNT>
0

> <PUBCHEM_ISOTOPIC_ATOM_COUNT>
0

> <PUBCHEM_COMPONENT_COUNT>
1

> <PUBCHEM_CACTVS_TAUTO_COUNT>
-1

> <PUBCHEM_COORDINATE_TYPE>
1
5
255

> <PUBCHEM_BONDANNOTATIONS>
11  24  8
2  11  8
2  22  8
22  23  8
23  24  8
26  28  8
26  29  8
28  30  8
29  31  8
30  32  8
31  32  8

$$$$
