10423452
  -OEChem-03202506262D

 30 32  0     0  0  0  0  0  0999 V2000
    6.0682   -1.3533    0.0000 O   0  0  0  0  0  0  0  0  0  0  0  0
    6.0682    1.6467    0.0000 O   0  0  0  0  0  0  0  0  0  0  0  0
    9.5984    0.6708    0.0000 O   0  0  0  0  0  0  0  0  0  0  0  0
    4.3198    1.6813    0.0000 O   0  0  0  0  0  0  0  0  0  0  0  0
    9.5984   -1.3775    0.0000 O   0  0  0  0  0  0  0  0  0  0  0  0
    2.5381   -1.3775    0.0000 O   0  0  0  0  0  0  0  0  0  0  0  0
    6.9343    0.1467    0.0000 C   0  0  0  0  0  0  0  0  0  0  0  0
    6.9343   -0.8533    0.0000 C   0  0  0  0  0  0  0  0  0  0  0  0
    5.2022    0.1467    0.0000 C   0  0  0  0  0  0  0  0  0  0  0  0
    7.8282    0.6813    0.0000 C   0  0  0  0  0  0  0  0  0  0  0  0
    6.0682    0.6467    0.0000 C   0  0  0  0  0  0  0  0  0  0  0  0
    5.2022   -0.8533    0.0000 C   0  0  0  0  0  0  0  0  0  0  0  0
    8.7343    0.1675    0.0000 C   0  0  0  0  0  0  0  0  0  0  0  0
    7.8282   -1.3880    0.0000 C   0  0  0  0  0  0  0  0  0  0  0  0
    4.3083    0.6813    0.0000 C   0  0  0  0  0  0  0  0  0  0  0  0
    8.7343   -0.8741    0.0000 C   0  0  0  0  0  0  0  0  0  0  0  0
    4.3083   -1.3880    0.0000 C   0  0  0  0  0  0  0  0  0  0  0  0
    7.8167    1.6813    0.0000 C   0  0  0  0  0  0  0  0  0  0  0  0
    3.4022    0.1675    0.0000 C   0  0  0  0  0  0  0  0  0  0  0  0
    3.4022   -0.8741    0.0000 C   0  0  0  0  0  0  0  0  0  0  0  0
    7.8210   -2.0079    0.0000 H   0  0  0  0  0  0  0  0  0  0  0  0
    4.3154   -2.0079    0.0000 H   0  0  0  0  0  0  0  0  0  0  0  0
    8.4366    1.6884    0.0000 H   0  0  0  0  0  0  0  0  0  0  0  0
    7.8095    2.3012    0.0000 H   0  0  0  0  0  0  0  0  0  0  0  0
    7.1967    1.6741    0.0000 H   0  0  0  0  0  0  0  0  0  0  0  0
    2.8665    0.4796    0.0000 H   0  0  0  0  0  0  0  0  0  0  0  0
   10.1365    0.3629    0.0000 H   0  0  0  0  0  0  0  0  0  0  0  0
    3.7865    1.9975    0.0000 H   0  0  0  0  0  0  0  0  0  0  0  0
    9.5960   -1.9975    0.0000 H   0  0  0  0  0  0  0  0  0  0  0  0
    2.0000   -1.0695    0.0000 H   0  0  0  0  0  0  0  0  0  0  0  0
  1  8  1  0  0  0  0
  1 12  1  0  0  0  0
  2 11  2  0  0  0  0
  3 13  1  0  0  0  0
  3 27  1  0  0  0  0
  4 15  1  0  0  0  0
  4 28  1  0  0  0  0
  5 16  1  0  0  0  0
  5 29  1  0  0  0  0
  6 20  1  0  0  0  0
  6 30  1  0  0  0  0
  7  8  2  0  0  0  0
  7 10  1  0  0  0  0
  7 11  1  0  0  0  0
  8 14  1  0  0  0  0
  9 11  1  0  0  0  0
  9 12  1  0  0  0  0
  9 15  2  0  0  0  0
 10 13  2  0  0  0  0
 10 18  1  0  0  0  0
 12 17  2  0  0  0  0
 13 16  1  0  0  0  0
 14 16  2  0  0  0  0
 14 21  1  0  0  0  0
 15 19  1  0  0  0  0
 17 20  1  0  0  0  0
 17 22  1  0  0  0  0
 18 23  1  0  0  0  0
 18 24  1  0  0  0  0
 18 25  1  0  0  0  0
 19 20  2  0  0  0  0
 19 26  1  0  0  0  0
M  END
> <PUBCHEM_COMPOUND_CID>
10423452

> <PUBCHEM_COMPOUND_CANONICALIZED>
1

> <PUBCHEM_CACTVS_COMPLEXITY>
399

> <PUBCHEM_CACTVS_HBOND_ACCEPTOR>
6

> <PUBCHEM_CACTVS_HBOND_DONOR>
4

> <PUBCHEM_CACTVS_ROTATABLE_BOND>
0

> <PUBCHEM_CACTVS_SUBSKEYS>
AAADccBwOAAAAAAAAAAAAAAAAAAAAAAAAAA0YIAAAAAAAACRQAAAGgAACAAADASAmAAyBoAABgCIAqBSAAACCAAkIAAAiAEGiMgNJzaGNRqCeWGl4BUJuQfK7PzOoQABCAAYQABCAAIQADCAAAAAAAAAAA==

> <PUBCHEM_IUPAC_OPENEYE_NAME>
2,3,6,8-tetrahydroxy-1-methyl-xanthen-9-one

> <PUBCHEM_IUPAC_CAS_NAME>
2,3,6,8-tetrahydroxy-1-methyl-9-xanthenone

> <PUBCHEM_IUPAC_NAME_MARKUP>
2,3,6,8-tetrahydroxy-1-methylxanthen-9-one

> <PUBCHEM_IUPAC_NAME>
2,3,6,8-tetrahydroxy-1-methylxanthen-9-one

> <PUBCHEM_IUPAC_SYSTEMATIC_NAME>
1-methyl-2,3,6,8-tetrakis(oxidanyl)xanthen-9-one

> <PUBCHEM_IUPAC_TRADITIONAL_NAME>
2,3,6,8-tetrahydroxy-1-methyl-xanthone

> <PUBCHEM_IUPAC_INCHI>
InChI=1S/C14H10O6/c1-5-11-10(4-8(17)13(5)18)20-9-3-6(15)2-7(16)12(9)14(11)19/h2-4,15-18H,1H3

> <PUBCHEM_IUPAC_INCHIKEY>
YPBXGIBBOZOVPM-UHFFFAOYSA-N

> <PUBCHEM_XLOGP3_AA>
2.5

> <PUBCHEM_EXACT_MASS>
274.04773803

> <PUBCHEM_MOLECULAR_FORMULA>
C14H10O6

> <PUBCHEM_MOLECULAR_WEIGHT>
274.22

> <PUBCHEM_SMILES>
CC1=C(C(=CC2=C1C(=O)C3=C(C=C(C=C3O2)O)O)O)O

> <PUBCHEM_OPENEYE_CAN_SMILES>
CC1=C(C(=CC2=C1C(=O)C3=C(C=C(C=C3O2)O)O)O)O

> <PUBCHEM_OPENEYE_ISO_SMILES>
CC1=C(C(=CC2=C1C(=O)C3=C(C=C(C=C3O2)O)O)O)O

> <PUBCHEM_CACTVS_TPSA>
107

> <PUBCHEM_MONOISOTOPIC_WEIGHT>
274.04773803

> <PUBCHEM_TOTAL_CHARGE>
0

> <PUBCHEM_HEAVY_ATOM_COUNT>
20

> <PUBCHEM_ATOM_DEF_STEREO_COUNT>
0

> <PUBCHEM_ATOM_UDEF_STEREO_COUNT>
0

> <PUBCHEM_BOND_DEF_STEREO_COUNT>
0

> <PUBCHEM_BOND_UDEF_STEREO_COUNT>
0

> <PUBCHEM_ISOTOPIC_ATOM_COUNT>
0

> <PUBCHEM_COMPONENT_COUNT>
1

> <PUBCHEM_CACTVS_TAUTO_COUNT>
-1

> <PUBCHEM_COORDINATE_TYPE>
1
5
255

> <PUBCHEM_BONDANNOTATIONS>
1  12  8
1  8  8
10  13  8
12  17  8
13  16  8
14  16  8
15  19  8
17  20  8
19  20  8
7  10  8
7  11  8
7  8  8
8  14  8
9  11  8
9  12  8
9  15  8

$$$$
