10354294
  -OEChem-03202510592D

 26 28  0     0  0  0  0  0  0999 V2000
    2.0000   -1.7568    0.0000 Cl  0  0  0  0  0  0  0  0  0  0  0  0
    5.5301   -1.7327    0.0000 N   0  0  0  0  0  0  0  0  0  0  0  0
    8.9942    1.2673    0.0000 N   0  0  0  0  0  0  0  0  0  0  0  0
    4.6641   -0.2327    0.0000 C   0  0  0  0  0  0  0  0  0  0  0  0
    6.3961   -0.2327    0.0000 C   0  0  0  0  0  0  0  0  0  0  0  0
    4.6641   -1.2327    0.0000 C   0  0  0  0  0  0  0  0  0  0  0  0
    5.5301    0.2673    0.0000 C   0  0  0  0  0  0  0  0  0  0  0  0
    7.2622    0.2673    0.0000 C   0  0  0  0  0  0  0  0  0  0  0  0
    6.3961   -1.2327    0.0000 C   0  0  0  0  0  0  0  0  0  0  0  0
    3.7702    0.3020    0.0000 C   0  0  0  0  0  0  0  0  0  0  0  0
    3.7702   -1.7673    0.0000 C   0  0  0  0  0  0  0  0  0  0  0  0
    2.8641   -0.2119    0.0000 C   0  0  0  0  0  0  0  0  0  0  0  0
    2.8641   -1.2535    0.0000 C   0  0  0  0  0  0  0  0  0  0  0  0
    7.2622    1.2673    0.0000 C   0  0  0  0  0  0  0  0  0  0  0  0
    8.1282   -0.2327    0.0000 C   0  0  0  0  0  0  0  0  0  0  0  0
    8.1282    1.7673    0.0000 C   0  0  0  0  0  0  0  0  0  0  0  0
    8.9942    0.2673    0.0000 C   0  0  0  0  0  0  0  0  0  0  0  0
    5.5301    0.8873    0.0000 H   0  0  0  0  0  0  0  0  0  0  0  0
    6.9331   -1.5427    0.0000 H   0  0  0  0  0  0  0  0  0  0  0  0
    3.7773    0.9220    0.0000 H   0  0  0  0  0  0  0  0  0  0  0  0
    3.7773   -2.3873    0.0000 H   0  0  0  0  0  0  0  0  0  0  0  0
    2.3284    0.1002    0.0000 H   0  0  0  0  0  0  0  0  0  0  0  0
    6.7252    1.5773    0.0000 H   0  0  0  0  0  0  0  0  0  0  0  0
    8.1282   -0.8527    0.0000 H   0  0  0  0  0  0  0  0  0  0  0  0
    8.1282    2.3873    0.0000 H   0  0  0  0  0  0  0  0  0  0  0  0
    9.5312   -0.0427    0.0000 H   0  0  0  0  0  0  0  0  0  0  0  0
  1 13  1  0  0  0  0
  2  6  2  0  0  0  0
  2  9  1  0  0  0  0
  3 16  2  0  0  0  0
  3 17  1  0  0  0  0
  4  6  1  0  0  0  0
  4  7  2  0  0  0  0
  4 10  1  0  0  0  0
  5  7  1  0  0  0  0
  5  8  1  0  0  0  0
  5  9  2  0  0  0  0
  6 11  1  0  0  0  0
  7 18  1  0  0  0  0
  8 14  2  0  0  0  0
  8 15  1  0  0  0  0
  9 19  1  0  0  0  0
 10 12  2  0  0  0  0
 10 20  1  0  0  0  0
 11 13  2  0  0  0  0
 11 21  1  0  0  0  0
 12 13  1  0  0  0  0
 12 22  1  0  0  0  0
 14 16  1  0  0  0  0
 14 23  1  0  0  0  0
 15 17  2  0  0  0  0
 15 24  1  0  0  0  0
 16 25  1  0  0  0  0
 17 26  1  0  0  0  0
M  END
> <PUBCHEM_COMPOUND_CID>
10354294

> <PUBCHEM_COMPOUND_CANONICALIZED>
1

> <PUBCHEM_CACTVS_COMPLEXITY>
253

> <PUBCHEM_CACTVS_HBOND_ACCEPTOR>
2

> <PUBCHEM_CACTVS_HBOND_DONOR>
0

> <PUBCHEM_CACTVS_ROTATABLE_BOND>
1

> <PUBCHEM_CACTVS_SUBSKEYS>
AAADccBzAAAEAAAAAAAAAAAAAAAAAAAAAAA8WIAAAAAAAACx/AAAHAIAAAAADArBHiQ8wPIIEACgAzRnRACCgCAxByAI2CA4ZpgIIOLBk5GEIAhggADIyAcQgMAOhAAAAAICAAAIAAAABAQAAAAAAAAAAA==

> <PUBCHEM_IUPAC_OPENEYE_NAME>
7-chloro-3-(4-pyridyl)quinoline

> <PUBCHEM_IUPAC_CAS_NAME>
7-chloro-3-pyridin-4-ylquinoline

> <PUBCHEM_IUPAC_NAME_MARKUP>
7-chloro-3-pyridin-4-ylquinoline

> <PUBCHEM_IUPAC_NAME>
7-chloro-3-pyridin-4-ylquinoline

> <PUBCHEM_IUPAC_SYSTEMATIC_NAME>
7-chloranyl-3-pyridin-4-yl-quinoline

> <PUBCHEM_IUPAC_TRADITIONAL_NAME>
7-chloro-3-(4-pyridyl)quinoline

> <PUBCHEM_IUPAC_INCHI>
InChI=1S/C14H9ClN2/c15-13-2-1-11-7-12(9-17-14(11)8-13)10-3-5-16-6-4-10/h1-9H

> <PUBCHEM_IUPAC_INCHIKEY>
WMECTFBVYBAOOF-UHFFFAOYSA-N

> <PUBCHEM_XLOGP3_AA>
3.4

> <PUBCHEM_EXACT_MASS>
240.0454260

> <PUBCHEM_MOLECULAR_FORMULA>
C14H9ClN2

> <PUBCHEM_MOLECULAR_WEIGHT>
240.69

> <PUBCHEM_SMILES>
C1=CC(=CC2=NC=C(C=C21)C3=CC=NC=C3)Cl

> <PUBCHEM_OPENEYE_CAN_SMILES>
C1=CC(=CC2=NC=C(C=C21)C3=CC=NC=C3)Cl

> <PUBCHEM_OPENEYE_ISO_SMILES>
C1=CC(=CC2=NC=C(C=C21)C3=CC=NC=C3)Cl

> <PUBCHEM_CACTVS_TPSA>
25.8

> <PUBCHEM_MONOISOTOPIC_WEIGHT>
240.0454260

> <PUBCHEM_TOTAL_CHARGE>
0

> <PUBCHEM_HEAVY_ATOM_COUNT>
17

> <PUBCHEM_ATOM_DEF_STEREO_COUNT>
0

> <PUBCHEM_ATOM_UDEF_STEREO_COUNT>
0

> <PUBCHEM_BOND_DEF_STEREO_COUNT>
0

> <PUBCHEM_BOND_UDEF_STEREO_COUNT>
0

> <PUBCHEM_ISOTOPIC_ATOM_COUNT>
0

> <PUBCHEM_COMPONENT_COUNT>
1

> <PUBCHEM_CACTVS_TAUTO_COUNT>
-1

> <PUBCHEM_COORDINATE_TYPE>
1
5
255

> <PUBCHEM_BONDANNOTATIONS>
10  12  8
11  13  8
12  13  8
14  16  8
15  17  8
2  6  8
2  9  8
3  16  8
3  17  8
4  10  8
4  6  8
4  7  8
5  7  8
5  9  8
6  11  8
8  14  8
8  15  8

$$$$
