49830807
  -OEChem-03202501352D

 45 47  0     0  0  0  0  0  0999 V2000
    9.7619   -3.2579    0.0000 S   0  0  0  0  0  0  0  0  0  0  0  0
    3.9639    3.5346    0.0000 O   0  0  0  0  0  0  0  0  0  0  0  0
    6.2619   -2.3918    0.0000 O   0  0  0  0  0  0  0  0  0  0  0  0
   10.6279   -2.7579    0.0000 O   0  0  0  0  0  0  0  0  0  0  0  0
    8.8958   -3.7579    0.0000 O   0  0  0  0  0  0  0  0  0  0  0  0
    4.6783    0.1449    0.0000 N   0  0  0  0  0  0  0  0  0  0  0  0
    4.6783   -1.4645    0.0000 N   0  0  0  0  0  0  0  0  0  0  0  0
    6.2619   -0.6598    0.0000 N   0  0  0  0  0  0  0  0  0  0  0  0
    4.9889    1.0954    0.0000 C   0  0  0  0  0  0  0  0  0  0  0  0
    3.7320   -0.1598    0.0000 C   0  0  0  0  0  0  0  0  0  0  0  0
    5.2619   -0.6598    0.0000 C   0  0  0  0  0  0  0  0  0  0  0  0
    4.3211    1.8398    0.0000 C   0  0  0  0  0  0  0  0  0  0  0  0
    3.7320   -1.1598    0.0000 C   0  0  0  0  0  0  0  0  0  0  0  0
    2.8660    0.3402    0.0000 C   0  0  0  0  0  0  0  0  0  0  0  0
    4.6318    2.7903    0.0000 C   0  0  0  0  0  0  0  0  0  0  0  0
    2.8660   -1.6598    0.0000 C   0  0  0  0  0  0  0  0  0  0  0  0
    6.7619   -1.5258    0.0000 C   0  0  0  0  0  0  0  0  0  0  0  0
    7.7619   -1.5258    0.0000 C   0  0  0  0  0  0  0  0  0  0  0  0
    2.0000   -0.1598    0.0000 C   0  0  0  0  0  0  0  0  0  0  0  0
    2.0000   -1.1598    0.0000 C   0  0  0  0  0  0  0  0  0  0  0  0
    9.2619   -2.3918    0.0000 C   0  0  0  0  0  0  0  0  0  0  0  0
    8.2619   -2.3918    0.0000 C   0  0  0  0  0  0  0  0  0  0  0  0
    8.2619   -0.6598    0.0000 C   0  0  0  0  0  0  0  0  0  0  0  0
    9.7619   -1.5258    0.0000 C   0  0  0  0  0  0  0  0  0  0  0  0
    9.2619   -0.6598    0.0000 C   0  0  0  0  0  0  0  0  0  0  0  0
   10.2619   -4.1239    0.0000 C   0  0  0  0  0  0  0  0  0  0  0  0
    5.5359    0.8034    0.0000 H   0  0  0  0  0  0  0  0  0  0  0  0
    5.3715    1.5834    0.0000 H   0  0  0  0  0  0  0  0  0  0  0  0
    3.7742    2.1318    0.0000 H   0  0  0  0  0  0  0  0  0  0  0  0
    3.9385    1.3518    0.0000 H   0  0  0  0  0  0  0  0  0  0  0  0
    2.8660    0.9602    0.0000 H   0  0  0  0  0  0  0  0  0  0  0  0
    6.5719   -0.1229    0.0000 H   0  0  0  0  0  0  0  0  0  0  0  0
    5.1787    2.4983    0.0000 H   0  0  0  0  0  0  0  0  0  0  0  0
    5.0143    3.2782    0.0000 H   0  0  0  0  0  0  0  0  0  0  0  0
    2.8660   -2.2798    0.0000 H   0  0  0  0  0  0  0  0  0  0  0  0
    1.4631    0.1502    0.0000 H   0  0  0  0  0  0  0  0  0  0  0  0
    1.4631   -1.4698    0.0000 H   0  0  0  0  0  0  0  0  0  0  0  0
    7.9519   -2.9288    0.0000 H   0  0  0  0  0  0  0  0  0  0  0  0
    7.9519   -0.1229    0.0000 H   0  0  0  0  0  0  0  0  0  0  0  0
   10.3819   -1.5258    0.0000 H   0  0  0  0  0  0  0  0  0  0  0  0
    9.5719   -0.1229    0.0000 H   0  0  0  0  0  0  0  0  0  0  0  0
    9.7249   -4.4339    0.0000 H   0  0  0  0  0  0  0  0  0  0  0  0
   10.5719   -4.6608    0.0000 H   0  0  0  0  0  0  0  0  0  0  0  0
   10.7988   -3.8139    0.0000 H   0  0  0  0  0  0  0  0  0  0  0  0
    4.1565    4.1239    0.0000 H   0  0  0  0  0  0  0  0  0  0  0  0
  1  4  2  0  0  0  0
  1  5  2  0  0  0  0
  1 21  1  0  0  0  0
  1 26  1  0  0  0  0
  2 15  1  0  0  0  0
  2 45  1  0  0  0  0
  3 17  2  0  0  0  0
  6  9  1  0  0  0  0
  6 10  1  0  0  0  0
  6 11  1  0  0  0  0
  7 11  2  0  0  0  0
  7 13  1  0  0  0  0
  8 11  1  0  0  0  0
  8 17  1  0  0  0  0
  8 32  1  0  0  0  0
  9 12  1  0  0  0  0
  9 27  1  0  0  0  0
  9 28  1  0  0  0  0
 10 13  1  0  0  0  0
 10 14  2  0  0  0  0
 12 15  1  0  0  0  0
 12 29  1  0  0  0  0
 12 30  1  0  0  0  0
 13 16  2  0  0  0  0
 14 19  1  0  0  0  0
 14 31  1  0  0  0  0
 15 33  1  0  0  0  0
 15 34  1  0  0  0  0
 16 20  1  0  0  0  0
 16 35  1  0  0  0  0
 17 18  1  0  0  0  0
 18 22  2  0  0  0  0
 18 23  1  0  0  0  0
 19 20  2  0  0  0  0
 19 36  1  0  0  0  0
 20 37  1  0  0  0  0
 21 22  1  0  0  0  0
 21 24  2  0  0  0  0
 22 38  1  0  0  0  0
 23 25  2  0  0  0  0
 23 39  1  0  0  0  0
 24 25  1  0  0  0  0
 24 40  1  0  0  0  0
 25 41  1  0  0  0  0
 26 42  1  0  0  0  0
 26 43  1  0  0  0  0
 26 44  1  0  0  0  0
M  END
> <PUBCHEM_COMPOUND_CID>
49830807

> <PUBCHEM_COMPOUND_CANONICALIZED>
1

> <PUBCHEM_CACTVS_COMPLEXITY>
592

> <PUBCHEM_CACTVS_HBOND_ACCEPTOR>
5

> <PUBCHEM_CACTVS_HBOND_DONOR>
2

> <PUBCHEM_CACTVS_ROTATABLE_BOND>
6

> <PUBCHEM_CACTVS_SUBSKEYS>
AAADceB7OABAAAAAAAAAAAAAAAAAAWAAAAAwYAAAAAAAAFgB9AAAHgQQCAAADAjh3gaz0bfMEgqoAyVydHDCgC0lGrAJ2Dk4dNiIeLLgnZGUYQhqgQLIyacYiACOAAAAgAAAACAAAAEAAAAAQAAAAAAAAA==

> <PUBCHEM_IUPAC_OPENEYE_NAME>
N-[1-(3-hydroxypropyl)benzimidazol-2-yl]-3-methylsulfonyl-benzamide

> <PUBCHEM_IUPAC_CAS_NAME>
N-[1-(3-hydroxypropyl)-2-benzimidazolyl]-3-methylsulfonylbenzamide

> <PUBCHEM_IUPAC_NAME_MARKUP>
<I>N</I>-[1-(3-hydroxypropyl)benzimidazol-2-yl]-3-methylsulfonylbenzamide

> <PUBCHEM_IUPAC_NAME>
N-[1-(3-hydroxypropyl)benzimidazol-2-yl]-3-methylsulfonylbenzamide

> <PUBCHEM_IUPAC_SYSTEMATIC_NAME>
3-methylsulfonyl-N-[1-(3-oxidanylpropyl)benzimidazol-2-yl]benzamide

> <PUBCHEM_IUPAC_TRADITIONAL_NAME>
N-[1-(3-hydroxypropyl)benzimidazol-2-yl]-3-mesyl-benzamide

> <PUBCHEM_IUPAC_INCHI>
InChI=1S/C18H19N3O4S/c1-26(24,25)14-7-4-6-13(12-14)17(23)20-18-19-15-8-2-3-9-16(15)21(18)10-5-11-22/h2-4,6-9,12,22H,5,10-11H2,1H3,(H,19,20,23)

> <PUBCHEM_IUPAC_INCHIKEY>
XWHCBQFKEIKORX-UHFFFAOYSA-N

> <PUBCHEM_XLOGP3_AA>
1.5

> <PUBCHEM_EXACT_MASS>
373.10962727

> <PUBCHEM_MOLECULAR_FORMULA>
C18H19N3O4S

> <PUBCHEM_MOLECULAR_WEIGHT>
373.4

> <PUBCHEM_SMILES>
CS(=O)(=O)C1=CC=CC(=C1)C(=O)NC2=NC3=CC=CC=C3N2CCCO

> <PUBCHEM_OPENEYE_CAN_SMILES>
CS(=O)(=O)C1=CC=CC(=C1)C(=O)NC2=NC3=CC=CC=C3N2CCCO

> <PUBCHEM_OPENEYE_ISO_SMILES>
CS(=O)(=O)C1=CC=CC(=C1)C(=O)NC2=NC3=CC=CC=C3N2CCCO

> <PUBCHEM_CACTVS_TPSA>
110

> <PUBCHEM_MONOISOTOPIC_WEIGHT>
373.10962727

> <PUBCHEM_TOTAL_CHARGE>
0

> <PUBCHEM_HEAVY_ATOM_COUNT>
26

> <PUBCHEM_ATOM_DEF_STEREO_COUNT>
0

> <PUBCHEM_ATOM_UDEF_STEREO_COUNT>
0

> <PUBCHEM_BOND_DEF_STEREO_COUNT>
0

> <PUBCHEM_BOND_UDEF_STEREO_COUNT>
0

> <PUBCHEM_ISOTOPIC_ATOM_COUNT>
0

> <PUBCHEM_COMPONENT_COUNT>
1

> <PUBCHEM_CACTVS_TAUTO_COUNT>
-1

> <PUBCHEM_COORDINATE_TYPE>
1
5
255

> <PUBCHEM_BONDANNOTATIONS>
10  13  8
10  14  8
13  16  8
14  19  8
16  20  8
18  22  8
18  23  8
19  20  8
21  22  8
21  24  8
23  25  8
24  25  8
6  10  8
6  11  8
7  11  8
7  13  8

$$$$
