59627005
  -OEChem-03202504472D

 48 51  0     1  0  0  0  0  0999 V2000
    2.0000    0.0092    0.0000 F   0  0  0  0  0  0  0  0  0  0  0  0
    9.8805   -1.8156    0.0000 O   0  0  0  0  0  0  0  0  0  0  0  0
    9.8744    1.7045    0.0000 N   0  0  0  0  0  0  0  0  0  0  0  0
    6.3301    1.5092    0.0000 N   0  0  0  0  0  0  0  0  0  0  0  0
    8.0622    1.5092    0.0000 N   0  0  0  0  0  0  0  0  0  0  0  0
    9.8744    3.3140    0.0000 N   0  0  0  0  0  0  0  0  0  0  0  0
   11.1367    0.4466    0.0000 N   0  0  0  0  0  0  0  0  0  0  0  0
   11.1384   -0.5534    0.0000 N   0  0  0  0  0  0  0  0  0  0  0  0
    4.5981    0.5092    0.0000 N   0  0  0  0  0  0  0  0  0  0  0  0
    5.4641    2.0092    0.0000 C   0  0  2  0  0  0  0  0  0  0  0  0
    8.9282    2.0092    0.0000 C   0  0  0  0  0  0  0  0  0  0  0  0
    8.9282    3.0092    0.0000 C   0  0  0  0  0  0  0  0  0  0  0  0
    7.1962    2.0092    0.0000 C   0  0  0  0  0  0  0  0  0  0  0  0
   10.1851    0.7540    0.0000 C   0  0  0  0  0  0  0  0  0  0  0  0
    4.5981    1.5092    0.0000 C   0  0  0  0  0  0  0  0  0  0  0  0
    5.4641    3.0092    0.0000 C   0  0  0  0  0  0  0  0  0  0  0  0
    8.0622    3.5092    0.0000 C   0  0  0  0  0  0  0  0  0  0  0  0
    7.1962    3.0092    0.0000 C   0  0  0  0  0  0  0  0  0  0  0  0
   10.4580    2.5092    0.0000 C   0  0  0  0  0  0  0  0  0  0  0  0
    9.5987   -0.0561    0.0000 C   0  0  0  0  0  0  0  0  0  0  0  0
   10.1879   -0.8641    0.0000 C   0  0  0  0  0  0  0  0  0  0  0  0
   10.5509   -2.5576    0.0000 C   0  0  0  0  0  0  0  0  0  0  0  0
    3.7320    2.0092    0.0000 C   0  0  0  0  0  0  0  0  0  0  0  0
   10.2436   -3.5092    0.0000 C   0  0  0  0  0  0  0  0  0  0  0  0
   11.5287   -2.3480    0.0000 C   0  0  0  0  0  0  0  0  0  0  0  0
    2.8660    1.5092    0.0000 C   0  0  0  0  0  0  0  0  0  0  0  0
    3.7320    0.0092    0.0000 C   0  0  0  0  0  0  0  0  0  0  0  0
    2.8660    0.5092    0.0000 C   0  0  0  0  0  0  0  0  0  0  0  0
    5.4641    1.3892    0.0000 H   0  0  0  0  0  0  0  0  0  0  0  0
    6.3301    0.8892    0.0000 H   0  0  0  0  0  0  0  0  0  0  0  0
    6.0841    3.0092    0.0000 H   0  0  0  0  0  0  0  0  0  0  0  0
    5.4641    3.6292    0.0000 H   0  0  0  0  0  0  0  0  0  0  0  0
    4.8441    3.0092    0.0000 H   0  0  0  0  0  0  0  0  0  0  0  0
    8.0622    4.1292    0.0000 H   0  0  0  0  0  0  0  0  0  0  0  0
    6.6592    3.3192    0.0000 H   0  0  0  0  0  0  0  0  0  0  0  0
   11.0780    2.5092    0.0000 H   0  0  0  0  0  0  0  0  0  0  0  0
    8.9787   -0.0571    0.0000 H   0  0  0  0  0  0  0  0  0  0  0  0
   11.6376    0.8119    0.0000 H   0  0  0  0  0  0  0  0  0  0  0  0
    9.9447   -2.6876    0.0000 H   0  0  0  0  0  0  0  0  0  0  0  0
    3.7320    2.6292    0.0000 H   0  0  0  0  0  0  0  0  0  0  0  0
    9.6536   -3.3187    0.0000 H   0  0  0  0  0  0  0  0  0  0  0  0
   10.0530   -4.0992    0.0000 H   0  0  0  0  0  0  0  0  0  0  0  0
   10.8335   -3.6998    0.0000 H   0  0  0  0  0  0  0  0  0  0  0  0
   11.6587   -2.9543    0.0000 H   0  0  0  0  0  0  0  0  0  0  0  0
   12.1349   -2.2181    0.0000 H   0  0  0  0  0  0  0  0  0  0  0  0
   11.3988   -1.7418    0.0000 H   0  0  0  0  0  0  0  0  0  0  0  0
    2.3291    1.8192    0.0000 H   0  0  0  0  0  0  0  0  0  0  0  0
    3.7320   -0.6108    0.0000 H   0  0  0  0  0  0  0  0  0  0  0  0
  1 28  1  0  0  0  0
  2 21  1  0  0  0  0
  2 22  1  0  0  0  0
  3 11  1  0  0  0  0
  3 14  1  0  0  0  0
  3 19  1  0  0  0  0
 10  4  1  6  0  0  0
  4 13  1  0  0  0  0
  4 30  1  0  0  0  0
  5 11  1  0  0  0  0
  5 13  2  0  0  0  0
  6 12  1  0  0  0  0
  6 19  2  0  0  0  0
  7  8  1  0  0  0  0
  7 14  1  0  0  0  0
  7 38  1  0  0  0  0
  8 21  2  0  0  0  0
  9 15  2  0  0  0  0
  9 27  1  0  0  0  0
 10 15  1  0  0  0  0
 10 16  1  0  0  0  0
 10 29  1  0  0  0  0
 11 12  2  0  0  0  0
 12 17  1  0  0  0  0
 13 18  1  0  0  0  0
 14 20  2  0  0  0  0
 15 23  1  0  0  0  0
 16 31  1  0  0  0  0
 16 32  1  0  0  0  0
 16 33  1  0  0  0  0
 17 18  2  0  0  0  0
 17 34  1  0  0  0  0
 18 35  1  0  0  0  0
 19 36  1  0  0  0  0
 20 21  1  0  0  0  0
 20 37  1  0  0  0  0
 22 24  1  0  0  0  0
 22 25  1  0  0  0  0
 22 39  1  0  0  0  0
 23 26  2  0  0  0  0
 23 40  1  0  0  0  0
 24 41  1  0  0  0  0
 24 42  1  0  0  0  0
 24 43  1  0  0  0  0
 25 44  1  0  0  0  0
 25 45  1  0  0  0  0
 25 46  1  0  0  0  0
 26 28  1  0  0  0  0
 26 47  1  0  0  0  0
 27 28  2  0  0  0  0
 27 48  1  0  0  0  0
M  END
> <PUBCHEM_COMPOUND_CID>
59627005

> <PUBCHEM_COMPOUND_CANONICALIZED>
1

> <PUBCHEM_CACTVS_COMPLEXITY>
513

> <PUBCHEM_CACTVS_HBOND_ACCEPTOR>
7

> <PUBCHEM_CACTVS_HBOND_DONOR>
2

> <PUBCHEM_CACTVS_ROTATABLE_BOND>
6

> <PUBCHEM_CACTVS_SUBSKEYS>
AAADceB7oQAAAAAAAAAAAAAAAAAAAWLAAAAsWAAAAAAAAFgB/gAAHwAYAAAACDzhlw4/9L/vFACiATZnZACSjC+xMqAd+aA+fJiMbOLE+dmerCjqmArI6CcQgAAAAAAAAAAAAAAAAAAAAAAAAAAAAAAAAA==

> <PUBCHEM_IUPAC_OPENEYE_NAME>
N-[(1S)-1-(5-fluoro-2-pyridyl)ethyl]-3-(3-isopropoxy-1H-pyrazol-5-yl)imidazo[4,5-b]pyridin-5-amine

> <PUBCHEM_IUPAC_CAS_NAME>
N-[(1S)-1-(5-fluoro-2-pyridinyl)ethyl]-3-(3-propan-2-yloxy-1H-pyrazol-5-yl)-5-imidazo[4,5-b]pyridinamine

> <PUBCHEM_IUPAC_NAME_MARKUP>
<I>N</I>-[(1<I>S</I>)-1-(5-fluoropyridin-2-yl)ethyl]-3-(3-propan-2-yloxy-1<I>H</I>-pyrazol-5-yl)imidazo[4,5-b]pyridin-5-amine

> <PUBCHEM_IUPAC_NAME>
N-[(1S)-1-(5-fluoropyridin-2-yl)ethyl]-3-(3-propan-2-yloxy-1H-pyrazol-5-yl)imidazo[4,5-b]pyridin-5-amine

> <PUBCHEM_IUPAC_SYSTEMATIC_NAME>
N-[(1S)-1-(5-fluoranylpyridin-2-yl)ethyl]-3-(3-propan-2-yloxy-1H-pyrazol-5-yl)imidazo[4,5-b]pyridin-5-amine

> <PUBCHEM_IUPAC_TRADITIONAL_NAME>
[(1S)-1-(5-fluoro-2-pyridyl)ethyl]-[3-(3-isopropoxy-1H-pyrazol-5-yl)imidazo[4,5-b]pyridin-5-yl]amine

> <PUBCHEM_IUPAC_INCHI>
InChI=1S/C19H20FN7O/c1-11(2)28-18-8-17(25-26-18)27-10-22-15-6-7-16(24-19(15)27)23-12(3)14-5-4-13(20)9-21-14/h4-12H,1-3H3,(H,23,24)(H,25,26)/t12-/m0/s1

> <PUBCHEM_IUPAC_INCHIKEY>
FZBVNCFBCNXULH-LBPRGKRZSA-N

> <PUBCHEM_XLOGP3_AA>
3.4

> <PUBCHEM_EXACT_MASS>
381.17133645

> <PUBCHEM_MOLECULAR_FORMULA>
C19H20FN7O

> <PUBCHEM_MOLECULAR_WEIGHT>
381.4

> <PUBCHEM_SMILES>
C[C@@H](C1=NC=C(C=C1)F)NC2=NC3=C(C=C2)N=CN3C4=CC(=NN4)OC(C)C

> <PUBCHEM_OPENEYE_CAN_SMILES>
CC(C)OC1=NNC(=C1)N2C=NC3=C2N=C(C=C3)NC(C)C4=NC=C(C=C4)F

> <PUBCHEM_OPENEYE_ISO_SMILES>
C[C@@H](C1=NC=C(C=C1)F)NC2=NC3=C(C=C2)N=CN3C4=CC(=NN4)OC(C)C

> <PUBCHEM_CACTVS_TPSA>
93.5

> <PUBCHEM_MONOISOTOPIC_WEIGHT>
381.17133645

> <PUBCHEM_TOTAL_CHARGE>
0

> <PUBCHEM_HEAVY_ATOM_COUNT>
28

> <PUBCHEM_ATOM_DEF_STEREO_COUNT>
1

> <PUBCHEM_ATOM_UDEF_STEREO_COUNT>
0

> <PUBCHEM_BOND_DEF_STEREO_COUNT>
0

> <PUBCHEM_BOND_UDEF_STEREO_COUNT>
0

> <PUBCHEM_ISOTOPIC_ATOM_COUNT>
0

> <PUBCHEM_COMPONENT_COUNT>
1

> <PUBCHEM_CACTVS_TAUTO_COUNT>
-1

> <PUBCHEM_COORDINATE_TYPE>
1
5
255

> <PUBCHEM_BONDANNOTATIONS>
11  12  8
12  17  8
13  18  8
14  20  8
15  23  8
17  18  8
20  21  8
23  26  8
26  28  8
27  28  8
3  11  8
3  19  8
10  4  6
5  11  8
5  13  8
6  12  8
6  19  8
7  14  8
7  8  8
8  21  8
9  15  8
9  27  8

$$$$
