49830967
  -OEChem-03202501542D

 29 32  0     0  0  0  0  0  0999 V2000
    8.6711   -2.4003    0.0000 Br  0  0  0  0  0  0  0  0  0  0  0  0
    6.1604    2.4003    0.0000 O   0  0  0  0  0  0  0  0  0  0  0  0
    7.0190   -1.8271    0.0000 O   0  0  0  0  0  0  0  0  0  0  0  0
    2.0000   -0.2439    0.0000 O   0  5  0  0  0  0  0  0  0  0  0  0
    2.3681    1.4486    0.0000 O   0  0  0  0  0  0  0  0  0  0  0  0
    6.6589   -0.1329    0.0000 N   0  0  0  0  0  0  0  0  0  0  0  0
    7.9460    1.0260    0.0000 N   0  0  0  0  0  0  0  0  0  0  0  0
    2.6726    0.4961    0.0000 N   0  3  0  0  0  0  0  0  0  0  0  0
    5.6648   -0.1304    0.0000 C   0  0  0  0  0  0  0  0  0  0  0  0
    5.3584    0.8153    0.0000 C   0  0  0  0  0  0  0  0  0  0  0  0
    6.9679    0.8181    0.0000 C   0  0  0  0  0  0  0  0  0  0  0  0
    6.1621    1.4003    0.0000 C   0  0  0  0  0  0  0  0  0  0  0  0
    7.3280   -0.8761    0.0000 C   0  0  0  0  0  0  0  0  0  0  0  0
    8.3061   -0.6682    0.0000 C   0  0  0  0  0  0  0  0  0  0  0  0
    8.6152    0.2829    0.0000 C   0  0  0  0  0  0  0  0  0  0  0  0
    4.9832   -0.9099    0.0000 C   0  0  0  0  0  0  0  0  0  0  0  0
    4.3492    1.0471    0.0000 C   0  0  0  0  0  0  0  0  0  0  0  0
    3.6498    0.2835    0.0000 C   0  0  0  0  0  0  0  0  0  0  0  0
    3.9689   -0.7015    0.0000 C   0  0  0  0  0  0  0  0  0  0  0  0
    8.9911   -1.4529    0.0000 C   0  0  0  0  0  0  0  0  0  0  0  0
    9.6306    0.5151    0.0000 C   0  0  0  0  0  0  0  0  0  0  0  0
   10.0116   -1.2442    0.0000 C   0  0  0  0  0  0  0  0  0  0  0  0
   10.3335   -0.2536    0.0000 C   0  0  0  0  0  0  0  0  0  0  0  0
    5.1811   -1.4974    0.0000 H   0  0  0  0  0  0  0  0  0  0  0  0
    4.1650    1.6391    0.0000 H   0  0  0  0  0  0  0  0  0  0  0  0
    3.5554   -1.1635    0.0000 H   0  0  0  0  0  0  0  0  0  0  0  0
    9.8153    1.1070    0.0000 H   0  0  0  0  0  0  0  0  0  0  0  0
   10.4247   -1.7066    0.0000 H   0  0  0  0  0  0  0  0  0  0  0  0
   10.9394   -0.1223    0.0000 H   0  0  0  0  0  0  0  0  0  0  0  0
  1 20  1  0  0  0  0
  2 12  2  0  0  0  0
  3 13  2  0  0  0  0
  4  8  1  0  0  0  0
  5  8  2  0  0  0  0
  6  9  1  0  0  0  0
  6 11  1  0  0  0  0
  6 13  1  0  0  0  0
  7 11  2  0  0  0  0
  7 15  1  0  0  0  0
  8 18  1  0  0  0  0
  9 10  2  0  0  0  0
  9 16  1  0  0  0  0
 10 12  1  0  0  0  0
 10 17  1  0  0  0  0
 11 12  1  0  0  0  0
 13 14  1  0  0  0  0
 14 15  2  0  0  0  0
 14 20  1  0  0  0  0
 15 21  1  0  0  0  0
 16 19  2  0  0  0  0
 16 24  1  0  0  0  0
 17 18  2  0  0  0  0
 17 25  1  0  0  0  0
 18 19  1  0  0  0  0
 19 26  1  0  0  0  0
 20 22  2  0  0  0  0
 21 23  2  0  0  0  0
 21 27  1  0  0  0  0
 22 23  1  0  0  0  0
 22 28  1  0  0  0  0
 23 29  1  0  0  0  0
M  CHG  2   4  -1   8   1
M  END
> <PUBCHEM_COMPOUND_CID>
49830967

> <PUBCHEM_COMPOUND_CANONICALIZED>
1

> <PUBCHEM_CACTVS_COMPLEXITY>
616

> <PUBCHEM_CACTVS_HBOND_ACCEPTOR>
5

> <PUBCHEM_CACTVS_HBOND_DONOR>
0

> <PUBCHEM_CACTVS_ROTATABLE_BOND>
0

> <PUBCHEM_CACTVS_SUBSKEYS>
AAADcYBzOAAAEAAAAAAAAAAAAAAAAWAAAAAwYIAAAAAAAFiBQAAAHgBEAAABrAyBmAAxwIMQQACpAqdydwCCAAElAgQpiAGgZOoIIDrA3bGEIYhghADIy9cciICOAACAQAECgAAAAQCAAgUAAAAAAAAAAA==

> <PUBCHEM_IUPAC_OPENEYE_NAME>
1-bromo-8-nitro-indolo[2,1-b]quinazoline-6,12-dione

> <PUBCHEM_IUPAC_CAS_NAME>
1-bromo-8-nitroindolo[2,1-b]quinazoline-6,12-dione

> <PUBCHEM_IUPAC_NAME_MARKUP>
1-bromo-8-nitroindolo[2,1-b]quinazoline-6,12-dione

> <PUBCHEM_IUPAC_NAME>
1-bromo-8-nitroindolo[2,1-b]quinazoline-6,12-dione

> <PUBCHEM_IUPAC_SYSTEMATIC_NAME>
1-bromanyl-8-nitro-indolo[2,1-b]quinazoline-6,12-dione

> <PUBCHEM_IUPAC_TRADITIONAL_NAME>
1-bromo-8-nitro-indolo[2,1-b]quinazoline-6,12-quinone

> <PUBCHEM_IUPAC_INCHI>
InChI=1S/C15H6BrN3O4/c16-9-2-1-3-10-12(9)15(21)18-11-5-4-7(19(22)23)6-8(11)13(20)14(18)17-10/h1-6H

> <PUBCHEM_IUPAC_INCHIKEY>
CSQQBGXAZRAXLV-UHFFFAOYSA-N

> <PUBCHEM_XLOGP3_AA>
2.6

> <PUBCHEM_EXACT_MASS>
370.95417

> <PUBCHEM_MOLECULAR_FORMULA>
C15H6BrN3O4

> <PUBCHEM_MOLECULAR_WEIGHT>
372.13

> <PUBCHEM_SMILES>
C1=CC2=C(C(=C1)Br)C(=O)N3C4=C(C=C(C=C4)[N+](=O)[O-])C(=O)C3=N2

> <PUBCHEM_OPENEYE_CAN_SMILES>
C1=CC2=C(C(=C1)Br)C(=O)N3C4=C(C=C(C=C4)[N+](=O)[O-])C(=O)C3=N2

> <PUBCHEM_OPENEYE_ISO_SMILES>
C1=CC2=C(C(=C1)Br)C(=O)N3C4=C(C=C(C=C4)[N+](=O)[O-])C(=O)C3=N2

> <PUBCHEM_CACTVS_TPSA>
95.6

> <PUBCHEM_MONOISOTOPIC_WEIGHT>
370.95417

> <PUBCHEM_TOTAL_CHARGE>
0

> <PUBCHEM_HEAVY_ATOM_COUNT>
23

> <PUBCHEM_ATOM_DEF_STEREO_COUNT>
0

> <PUBCHEM_ATOM_UDEF_STEREO_COUNT>
0

> <PUBCHEM_BOND_DEF_STEREO_COUNT>
0

> <PUBCHEM_BOND_UDEF_STEREO_COUNT>
0

> <PUBCHEM_ISOTOPIC_ATOM_COUNT>
0

> <PUBCHEM_COMPONENT_COUNT>
1

> <PUBCHEM_CACTVS_TAUTO_COUNT>
-1

> <PUBCHEM_COORDINATE_TYPE>
1
5
255

> <PUBCHEM_BONDANNOTATIONS>
10  17  8
13  14  8
14  15  8
14  20  8
15  21  8
16  19  8
17  18  8
18  19  8
20  22  8
21  23  8
22  23  8
6  11  8
6  13  8
7  11  8
7  15  8
9  10  8
9  16  8

$$$$
