49830523
  -OEChem-03202501212D

 41 43  0     0  0  0  0  0  0999 V2000
   12.9292    0.2500    0.0000 O   0  0  0  0  0  0  0  0  0  0  0  0
    2.5369   -1.7500    0.0000 O   0  0  0  0  0  0  0  0  0  0  0  0
    4.2690   -1.7500    0.0000 O   0  0  0  0  0  0  0  0  0  0  0  0
    8.5991   -0.2500    0.0000 N   0  0  0  0  0  0  0  0  0  0  0  0
    5.1350   -0.2500    0.0000 N   0  0  0  0  0  0  0  0  0  0  0  0
    6.8671   -0.2500    0.0000 N   0  0  0  0  0  0  0  0  0  0  0  0
    7.7331    1.2500    0.0000 N   0  0  0  0  0  0  0  0  0  0  0  0
    9.4651    0.2500    0.0000 C   0  0  0  0  0  0  0  0  0  0  0  0
   10.3312   -0.2500    0.0000 C   0  0  0  0  0  0  0  0  0  0  0  0
    4.2690    0.2500    0.0000 C   0  0  0  0  0  0  0  0  0  0  0  0
    6.0010    0.2500    0.0000 C   0  0  0  0  0  0  0  0  0  0  0  0
   11.1972    0.2500    0.0000 C   0  0  0  0  0  0  0  0  0  0  0  0
    7.7331    0.2500    0.0000 C   0  0  0  0  0  0  0  0  0  0  0  0
    3.4030   -0.2500    0.0000 C   0  0  0  0  0  0  0  0  0  0  0  0
   10.3312   -1.2500    0.0000 C   0  0  0  0  0  0  0  0  0  0  0  0
    4.2690    1.2500    0.0000 C   0  0  0  0  0  0  0  0  0  0  0  0
   12.0632   -0.2500    0.0000 C   0  0  0  0  0  0  0  0  0  0  0  0
   11.1972   -1.7500    0.0000 C   0  0  0  0  0  0  0  0  0  0  0  0
    2.5369    0.2500    0.0000 C   0  0  0  0  0  0  0  0  0  0  0  0
    6.0010    1.2500    0.0000 C   0  0  0  0  0  0  0  0  0  0  0  0
   12.0632   -1.2500    0.0000 C   0  0  0  0  0  0  0  0  0  0  0  0
    3.4030    1.7500    0.0000 C   0  0  0  0  0  0  0  0  0  0  0  0
    2.5369    1.2500    0.0000 C   0  0  0  0  0  0  0  0  0  0  0  0
    6.8671    1.7500    0.0000 C   0  0  0  0  0  0  0  0  0  0  0  0
    3.4030   -1.2500    0.0000 C   0  0  0  0  0  0  0  0  0  0  0  0
    9.8637    0.7249    0.0000 H   0  0  0  0  0  0  0  0  0  0  0  0
    9.0666    0.7249    0.0000 H   0  0  0  0  0  0  0  0  0  0  0  0
    8.5991   -0.8700    0.0000 H   0  0  0  0  0  0  0  0  0  0  0  0
    5.1350   -0.8700    0.0000 H   0  0  0  0  0  0  0  0  0  0  0  0
   11.1972    0.8700    0.0000 H   0  0  0  0  0  0  0  0  0  0  0  0
    9.7942   -1.5600    0.0000 H   0  0  0  0  0  0  0  0  0  0  0  0
    4.8059    1.5600    0.0000 H   0  0  0  0  0  0  0  0  0  0  0  0
   11.1972   -2.3700    0.0000 H   0  0  0  0  0  0  0  0  0  0  0  0
    2.0000   -0.0600    0.0000 H   0  0  0  0  0  0  0  0  0  0  0  0
    5.4641    1.5600    0.0000 H   0  0  0  0  0  0  0  0  0  0  0  0
   12.6002   -1.5600    0.0000 H   0  0  0  0  0  0  0  0  0  0  0  0
    3.4030    2.3700    0.0000 H   0  0  0  0  0  0  0  0  0  0  0  0
    2.0000    1.5600    0.0000 H   0  0  0  0  0  0  0  0  0  0  0  0
    6.8671    2.3700    0.0000 H   0  0  0  0  0  0  0  0  0  0  0  0
   13.4662   -0.0600    0.0000 H   0  0  0  0  0  0  0  0  0  0  0  0
    2.0000   -1.4400    0.0000 H   0  0  0  0  0  0  0  0  0  0  0  0
  1 17  1  0  0  0  0
  1 40  1  0  0  0  0
  2 25  1  0  0  0  0
  2 41  1  0  0  0  0
  3 25  2  0  0  0  0
  4  8  1  0  0  0  0
  4 13  1  0  0  0  0
  4 28  1  0  0  0  0
  5 10  1  0  0  0  0
  5 11  1  0  0  0  0
  5 29  1  0  0  0  0
  6 11  2  0  0  0  0
  6 13  1  0  0  0  0
  7 13  2  0  0  0  0
  7 24  1  0  0  0  0
  8  9  1  0  0  0  0
  8 26  1  0  0  0  0
  8 27  1  0  0  0  0
  9 12  2  0  0  0  0
  9 15  1  0  0  0  0
 10 14  1  0  0  0  0
 10 16  2  0  0  0  0
 11 20  1  0  0  0  0
 12 17  1  0  0  0  0
 12 30  1  0  0  0  0
 14 19  2  0  0  0  0
 14 25  1  0  0  0  0
 15 18  2  0  0  0  0
 15 31  1  0  0  0  0
 16 22  1  0  0  0  0
 16 32  1  0  0  0  0
 17 21  2  0  0  0  0
 18 21  1  0  0  0  0
 18 33  1  0  0  0  0
 19 23  1  0  0  0  0
 19 34  1  0  0  0  0
 20 24  2  0  0  0  0
 20 35  1  0  0  0  0
 21 36  1  0  0  0  0
 22 23  2  0  0  0  0
 22 37  1  0  0  0  0
 23 38  1  0  0  0  0
 24 39  1  0  0  0  0
M  END
> <PUBCHEM_COMPOUND_CID>
49830523

> <PUBCHEM_COMPOUND_CANONICALIZED>
1

> <PUBCHEM_CACTVS_COMPLEXITY>
437

> <PUBCHEM_CACTVS_HBOND_ACCEPTOR>
7

> <PUBCHEM_CACTVS_HBOND_DONOR>
4

> <PUBCHEM_CACTVS_ROTATABLE_BOND>
6

> <PUBCHEM_CACTVS_SUBSKEYS>
AAADceB7sAAAAAAAAAAAAAAAAAAAAAAAAAA8YIAAAAAAAAAB0AAAHgAQCAAADAzBmgQ9/pbIEgCoAjb3bACCgCk1IqAJ2KE+bNiILvrC3dOEdYhu0BPI2ee4yDCOAAABAAACAAAAAAIAAAQAAAAAAAAAAA==

> <PUBCHEM_IUPAC_OPENEYE_NAME>
2-[[2-[(3-hydroxyphenyl)methylamino]pyrimidin-4-yl]amino]benzoic acid

> <PUBCHEM_IUPAC_CAS_NAME>
2-[[2-[(3-hydroxyphenyl)methylamino]-4-pyrimidinyl]amino]benzoic acid

> <PUBCHEM_IUPAC_NAME_MARKUP>
2-[[2-[(3-hydroxyphenyl)methylamino]pyrimidin-4-yl]amino]benzoic acid

> <PUBCHEM_IUPAC_NAME>
2-[[2-[(3-hydroxyphenyl)methylamino]pyrimidin-4-yl]amino]benzoic acid

> <PUBCHEM_IUPAC_SYSTEMATIC_NAME>
2-[[2-[(3-hydroxyphenyl)methylamino]pyrimidin-4-yl]amino]benzoic acid

> <PUBCHEM_IUPAC_TRADITIONAL_NAME>
2-[[2-[(3-hydroxybenzyl)amino]pyrimidin-4-yl]amino]benzoic acid

> <PUBCHEM_IUPAC_INCHI>
InChI=1S/C18H16N4O3/c23-13-5-3-4-12(10-13)11-20-18-19-9-8-16(22-18)21-15-7-2-1-6-14(15)17(24)25/h1-10,23H,11H2,(H,24,25)(H2,19,20,21,22)

> <PUBCHEM_IUPAC_INCHIKEY>
IIPNDDKGCRHLKT-UHFFFAOYSA-N

> <PUBCHEM_XLOGP3_AA>
3.6

> <PUBCHEM_EXACT_MASS>
336.12224039

> <PUBCHEM_MOLECULAR_FORMULA>
C18H16N4O3

> <PUBCHEM_MOLECULAR_WEIGHT>
336.3

> <PUBCHEM_SMILES>
C1=CC=C(C(=C1)C(=O)O)NC2=NC(=NC=C2)NCC3=CC(=CC=C3)O

> <PUBCHEM_OPENEYE_CAN_SMILES>
C1=CC=C(C(=C1)C(=O)O)NC2=NC(=NC=C2)NCC3=CC(=CC=C3)O

> <PUBCHEM_OPENEYE_ISO_SMILES>
C1=CC=C(C(=C1)C(=O)O)NC2=NC(=NC=C2)NCC3=CC(=CC=C3)O

> <PUBCHEM_CACTVS_TPSA>
107

> <PUBCHEM_MONOISOTOPIC_WEIGHT>
336.12224039

> <PUBCHEM_TOTAL_CHARGE>
0

> <PUBCHEM_HEAVY_ATOM_COUNT>
25

> <PUBCHEM_ATOM_DEF_STEREO_COUNT>
0

> <PUBCHEM_ATOM_UDEF_STEREO_COUNT>
0

> <PUBCHEM_BOND_DEF_STEREO_COUNT>
0

> <PUBCHEM_BOND_UDEF_STEREO_COUNT>
0

> <PUBCHEM_ISOTOPIC_ATOM_COUNT>
0

> <PUBCHEM_COMPONENT_COUNT>
1

> <PUBCHEM_CACTVS_TAUTO_COUNT>
-1

> <PUBCHEM_COORDINATE_TYPE>
1
5
255

> <PUBCHEM_BONDANNOTATIONS>
10  14  8
10  16  8
11  20  8
12  17  8
14  19  8
15  18  8
16  22  8
17  21  8
18  21  8
19  23  8
20  24  8
22  23  8
6  11  8
6  13  8
7  13  8
7  24  8
9  12  8
9  15  8

$$$$
