16050453
  -OEChem-03202503292D

 50 53  0     0  0  0  0  0  0999 V2000
    6.2619   -3.3588    0.0000 F   0  0  0  0  0  0  0  0  0  0  0  0
    9.2619   -1.6267    0.0000 F   0  0  0  0  0  0  0  0  0  0  0  0
    9.5243    2.8544    0.0000 O   0  0  0  0  0  0  0  0  0  0  0  0
    3.7320   -1.1267    0.0000 N   0  0  0  0  0  0  0  0  0  0  0  0
    7.2566    1.4915    0.0000 N   0  0  0  0  0  0  0  0  0  0  0  0
    4.6783   -2.4315    0.0000 N   0  0  0  0  0  0  0  0  0  0  0  0
    5.9674    0.3347    0.0000 N   0  0  0  0  0  0  0  0  0  0  0  0
    2.0000   -2.1267    0.0000 N   0  0  0  0  0  0  0  0  0  0  0  0
    5.6103    2.0296    0.0000 N   0  0  0  0  0  0  0  0  0  0  0  0
    8.5458    2.6482    0.0000 C   0  0  0  0  0  0  0  0  0  0  0  0
    7.5673    2.4420    0.0000 C   0  0  0  0  0  0  0  0  0  0  0  0
    4.6783   -0.8220    0.0000 C   0  0  0  0  0  0  0  0  0  0  0  0
    5.2619   -1.6267    0.0000 C   0  0  0  0  0  0  0  0  0  0  0  0
    3.7320   -2.1267    0.0000 C   0  0  0  0  0  0  0  0  0  0  0  0
    8.3396    3.6267    0.0000 C   0  0  0  0  0  0  0  0  0  0  0  0
    8.7520    1.6697    0.0000 C   0  0  0  0  0  0  0  0  0  0  0  0
    4.9889    0.1285    0.0000 C   0  0  0  0  0  0  0  0  0  0  0  0
    6.2619   -1.6267    0.0000 C   0  0  0  0  0  0  0  0  0  0  0  0
    2.8660   -2.6267    0.0000 C   0  0  0  0  0  0  0  0  0  0  0  0
    6.2781    1.2853    0.0000 C   0  0  0  0  0  0  0  0  0  0  0  0
    2.8660   -0.6267    0.0000 C   0  0  0  0  0  0  0  0  0  0  0  0
    4.3211    0.8728    0.0000 C   0  0  0  0  0  0  0  0  0  0  0  0
    2.0000   -1.1267    0.0000 C   0  0  0  0  0  0  0  0  0  0  0  0
    6.7619   -2.4928    0.0000 C   0  0  0  0  0  0  0  0  0  0  0  0
    6.7619   -0.7607    0.0000 C   0  0  0  0  0  0  0  0  0  0  0  0
    2.8660   -3.6267    0.0000 C   0  0  0  0  0  0  0  0  0  0  0  0
    4.6318    1.8234    0.0000 C   0  0  0  0  0  0  0  0  0  0  0  0
    7.7619   -2.4928    0.0000 C   0  0  0  0  0  0  0  0  0  0  0  0
    7.7619   -0.7607    0.0000 C   0  0  0  0  0  0  0  0  0  0  0  0
    8.2619   -1.6267    0.0000 C   0  0  0  0  0  0  0  0  0  0  0  0
    7.5467    3.0617    0.0000 H   0  0  0  0  0  0  0  0  0  0  0  0
    6.9534    2.5294    0.0000 H   0  0  0  0  0  0  0  0  0  0  0  0
    8.9462    3.7546    0.0000 H   0  0  0  0  0  0  0  0  0  0  0  0
    8.2117    4.2334    0.0000 H   0  0  0  0  0  0  0  0  0  0  0  0
    7.7329    3.4989    0.0000 H   0  0  0  0  0  0  0  0  0  0  0  0
    8.1453    1.5419    0.0000 H   0  0  0  0  0  0  0  0  0  0  0  0
    8.8798    1.0630    0.0000 H   0  0  0  0  0  0  0  0  0  0  0  0
    9.3587    1.7976    0.0000 H   0  0  0  0  0  0  0  0  0  0  0  0
    7.6707    1.0300    0.0000 H   0  0  0  0  0  0  0  0  0  0  0  0
    2.8660   -0.0067    0.0000 H   0  0  0  0  0  0  0  0  0  0  0  0
    9.7169    3.4438    0.0000 H   0  0  0  0  0  0  0  0  0  0  0  0
    3.7144    0.7450    0.0000 H   0  0  0  0  0  0  0  0  0  0  0  0
    1.4631   -0.8167    0.0000 H   0  0  0  0  0  0  0  0  0  0  0  0
    6.4519   -0.2238    0.0000 H   0  0  0  0  0  0  0  0  0  0  0  0
    2.2460   -3.6267    0.0000 H   0  0  0  0  0  0  0  0  0  0  0  0
    2.8660   -4.2467    0.0000 H   0  0  0  0  0  0  0  0  0  0  0  0
    3.4860   -3.6267    0.0000 H   0  0  0  0  0  0  0  0  0  0  0  0
    4.2177    2.2848    0.0000 H   0  0  0  0  0  0  0  0  0  0  0  0
    8.0719   -3.0297    0.0000 H   0  0  0  0  0  0  0  0  0  0  0  0
    8.0719   -0.2238    0.0000 H   0  0  0  0  0  0  0  0  0  0  0  0
  1 24  1  0  0  0  0
  2 30  1  0  0  0  0
  3 10  1  0  0  0  0
  3 41  1  0  0  0  0
  4 12  1  0  0  0  0
  4 14  1  0  0  0  0
  4 21  1  0  0  0  0
  5 11  1  0  0  0  0
  5 20  1  0  0  0  0
  5 39  1  0  0  0  0
  6 13  1  0  0  0  0
  6 14  2  0  0  0  0
  7 17  2  0  0  0  0
  7 20  1  0  0  0  0
  8 19  2  0  0  0  0
  8 23  1  0  0  0  0
  9 20  2  0  0  0  0
  9 27  1  0  0  0  0
 10 11  1  0  0  0  0
 10 15  1  0  0  0  0
 10 16  1  0  0  0  0
 11 31  1  0  0  0  0
 11 32  1  0  0  0  0
 12 13  2  0  0  0  0
 12 17  1  0  0  0  0
 13 18  1  0  0  0  0
 14 19  1  0  0  0  0
 15 33  1  0  0  0  0
 15 34  1  0  0  0  0
 15 35  1  0  0  0  0
 16 36  1  0  0  0  0
 16 37  1  0  0  0  0
 16 38  1  0  0  0  0
 17 22  1  0  0  0  0
 18 24  2  0  0  0  0
 18 25  1  0  0  0  0
 19 26  1  0  0  0  0
 21 23  2  0  0  0  0
 21 40  1  0  0  0  0
 22 27  2  0  0  0  0
 22 42  1  0  0  0  0
 23 43  1  0  0  0  0
 24 28  1  0  0  0  0
 25 29  2  0  0  0  0
 25 44  1  0  0  0  0
 26 45  1  0  0  0  0
 26 46  1  0  0  0  0
 26 47  1  0  0  0  0
 27 48  1  0  0  0  0
 28 30  2  0  0  0  0
 28 49  1  0  0  0  0
 29 30  1  0  0  0  0
 29 50  1  0  0  0  0
M  END
> <PUBCHEM_COMPOUND_CID>
16050453

> <PUBCHEM_COMPOUND_CANONICALIZED>
1

> <PUBCHEM_CACTVS_COMPLEXITY>
584

> <PUBCHEM_CACTVS_HBOND_ACCEPTOR>
8

> <PUBCHEM_CACTVS_HBOND_DONOR>
2

> <PUBCHEM_CACTVS_ROTATABLE_BOND>
5

> <PUBCHEM_CACTVS_SUBSKEYS>
AAADceB7oYAAAAAAAAAAAAAAAAAAAWAAAAA8WIAAAAAAAFgB/AAAHwAQCAAADEzBnww/sJ/MGgCgAzZnZACCgC0xEqAJ2KA4dJiKaOLA2dGUJAhogALYyCcQgMAOAAAAAAAAAAAAAAAAAAAAAAAAAAAAAA==

> <PUBCHEM_IUPAC_OPENEYE_NAME>
1-[[4-[2-(2,4-difluorophenyl)-8-methyl-imidazo[1,2-a]pyrazin-3-yl]pyrimidin-2-yl]amino]-2-methyl-propan-2-ol

> <PUBCHEM_IUPAC_CAS_NAME>
1-[[4-[2-(2,4-difluorophenyl)-8-methyl-3-imidazo[1,2-a]pyrazinyl]-2-pyrimidinyl]amino]-2-methyl-2-propanol

> <PUBCHEM_IUPAC_NAME_MARKUP>
1-[[4-[2-(2,4-difluorophenyl)-8-methylimidazo[1,2-a]pyrazin-3-yl]pyrimidin-2-yl]amino]-2-methylpropan-2-ol

> <PUBCHEM_IUPAC_NAME>
1-[[4-[2-(2,4-difluorophenyl)-8-methylimidazo[1,2-a]pyrazin-3-yl]pyrimidin-2-yl]amino]-2-methylpropan-2-ol

> <PUBCHEM_IUPAC_SYSTEMATIC_NAME>
1-[[4-[2-[2,4-bis(fluoranyl)phenyl]-8-methyl-imidazo[1,2-a]pyrazin-3-yl]pyrimidin-2-yl]amino]-2-methyl-propan-2-ol

> <PUBCHEM_IUPAC_TRADITIONAL_NAME>
1-[[4-[2-(2,4-difluorophenyl)-8-methyl-imidazo[1,2-a]pyrazin-3-yl]pyrimidin-2-yl]amino]-2-methyl-propan-2-ol

> <PUBCHEM_IUPAC_INCHI>
InChI=1S/C21H20F2N6O/c1-12-19-28-17(14-5-4-13(22)10-15(14)23)18(29(19)9-8-24-12)16-6-7-25-20(27-16)26-11-21(2,3)30/h4-10,30H,11H2,1-3H3,(H,25,26,27)

> <PUBCHEM_IUPAC_INCHIKEY>
WIRUYYYAAJOIKO-UHFFFAOYSA-N

> <PUBCHEM_XLOGP3_AA>
3.2

> <PUBCHEM_EXACT_MASS>
410.16666561

> <PUBCHEM_MOLECULAR_FORMULA>
C21H20F2N6O

> <PUBCHEM_MOLECULAR_WEIGHT>
410.4

> <PUBCHEM_SMILES>
CC1=NC=CN2C1=NC(=C2C3=NC(=NC=C3)NCC(C)(C)O)C4=C(C=C(C=C4)F)F

> <PUBCHEM_OPENEYE_CAN_SMILES>
CC1=NC=CN2C1=NC(=C2C3=NC(=NC=C3)NCC(C)(C)O)C4=C(C=C(C=C4)F)F

> <PUBCHEM_OPENEYE_ISO_SMILES>
CC1=NC=CN2C1=NC(=C2C3=NC(=NC=C3)NCC(C)(C)O)C4=C(C=C(C=C4)F)F

> <PUBCHEM_CACTVS_TPSA>
88.2

> <PUBCHEM_MONOISOTOPIC_WEIGHT>
410.16666561

> <PUBCHEM_TOTAL_CHARGE>
0

> <PUBCHEM_HEAVY_ATOM_COUNT>
30

> <PUBCHEM_ATOM_DEF_STEREO_COUNT>
0

> <PUBCHEM_ATOM_UDEF_STEREO_COUNT>
0

> <PUBCHEM_BOND_DEF_STEREO_COUNT>
0

> <PUBCHEM_BOND_UDEF_STEREO_COUNT>
0

> <PUBCHEM_ISOTOPIC_ATOM_COUNT>
0

> <PUBCHEM_COMPONENT_COUNT>
1

> <PUBCHEM_CACTVS_TAUTO_COUNT>
-1

> <PUBCHEM_COORDINATE_TYPE>
1
5
255

> <PUBCHEM_BONDANNOTATIONS>
12  13  8
14  19  8
17  22  8
18  24  8
18  25  8
21  23  8
22  27  8
24  28  8
25  29  8
28  30  8
29  30  8
4  12  8
4  14  8
4  21  8
6  13  8
6  14  8
7  17  8
7  20  8
8  19  8
8  23  8
9  20  8
9  27  8

$$$$
