49830305
  -OEChem-03202504232D

 55 58  0     0  0  0  0  0  0999 V2000
    7.2566   -1.4026    0.0000 Cl  0  0  0  0  0  0  0  0  0  0  0  0
    5.2066    3.4757    0.0000 N   0  0  0  0  0  0  0  0  0  0  0  0
    3.9639   -0.3264    0.0000 N   0  0  0  0  0  0  0  0  0  0  0  0
    4.3211   -2.0212    0.0000 N   0  0  0  0  0  0  0  0  0  0  0  0
    5.6103   -0.8645    0.0000 N   0  0  0  0  0  0  0  0  0  0  0  0
    4.6783   -5.3255    0.0000 N   0  0  0  0  0  0  0  0  0  0  0  0
    2.8660   -5.5208    0.0000 N   0  0  0  0  0  0  0  0  0  0  0  0
    4.8959    2.5252    0.0000 C   0  0  0  0  0  0  0  0  0  0  0  0
    4.2746    0.6241    0.0000 C   0  0  0  0  0  0  0  0  0  0  0  0
    3.9174    2.3190    0.0000 C   0  0  0  0  0  0  0  0  0  0  0  0
    5.5637    1.7809    0.0000 C   0  0  0  0  0  0  0  0  0  0  0  0
    3.6067    1.3684    0.0000 C   0  0  0  0  0  0  0  0  0  0  0  0
    5.2531    0.8304    0.0000 C   0  0  0  0  0  0  0  0  0  0  0  0
    4.5387    4.2200    0.0000 C   0  0  0  0  0  0  0  0  0  0  0  0
    4.8494    5.1705    0.0000 C   0  0  0  0  0  0  0  0  0  0  0  0
    4.6318   -1.0707    0.0000 C   0  0  0  0  0  0  0  0  0  0  0  0
    4.1815    5.9148    0.0000 C   0  0  0  0  0  0  0  0  0  0  0  0
    5.8279    5.3767    0.0000 C   0  0  0  0  0  0  0  0  0  0  0  0
    4.9889   -2.7655    0.0000 C   0  0  0  0  0  0  0  0  0  0  0  0
    4.6783   -3.7160    0.0000 C   0  0  0  0  0  0  0  0  0  0  0  0
    6.2781   -1.6088    0.0000 C   0  0  0  0  0  0  0  0  0  0  0  0
    5.9674   -2.5593    0.0000 C   0  0  0  0  0  0  0  0  0  0  0  0
    3.7320   -4.0208    0.0000 C   0  0  0  0  0  0  0  0  0  0  0  0
    5.2619   -4.5208    0.0000 C   0  0  0  0  0  0  0  0  0  0  0  0
    3.7320   -5.0208    0.0000 C   0  0  0  0  0  0  0  0  0  0  0  0
    2.8660   -3.5208    0.0000 C   0  0  0  0  0  0  0  0  0  0  0  0
    2.0000   -4.0208    0.0000 C   0  0  0  0  0  0  0  0  0  0  0  0
    2.0000   -5.0208    0.0000 C   0  0  0  0  0  0  0  0  0  0  0  0
    5.5026    2.6530    0.0000 H   0  0  0  0  0  0  0  0  0  0  0  0
    4.6886    0.1627    0.0000 H   0  0  0  0  0  0  0  0  0  0  0  0
    3.8968    2.9386    0.0000 H   0  0  0  0  0  0  0  0  0  0  0  0
    3.3036    2.4063    0.0000 H   0  0  0  0  0  0  0  0  0  0  0  0
    6.1107    1.4888    0.0000 H   0  0  0  0  0  0  0  0  0  0  0  0
    5.9463    2.2688    0.0000 H   0  0  0  0  0  0  0  0  0  0  0  0
    3.0598    1.6604    0.0000 H   0  0  0  0  0  0  0  0  0  0  0  0
    3.2242    0.8805    0.0000 H   0  0  0  0  0  0  0  0  0  0  0  0
    5.2736    0.2107    0.0000 H   0  0  0  0  0  0  0  0  0  0  0  0
    5.8669    0.7430    0.0000 H   0  0  0  0  0  0  0  0  0  0  0  0
    5.8132    3.6036    0.0000 H   0  0  0  0  0  0  0  0  0  0  0  0
    3.3572   -0.4542    0.0000 H   0  0  0  0  0  0  0  0  0  0  0  0
    3.9918    4.5120    0.0000 H   0  0  0  0  0  0  0  0  0  0  0  0
    4.1562    3.7321    0.0000 H   0  0  0  0  0  0  0  0  0  0  0  0
    4.2427    5.0427    0.0000 H   0  0  0  0  0  0  0  0  0  0  0  0
    4.6430    6.3289    0.0000 H   0  0  0  0  0  0  0  0  0  0  0  0
    3.7675    6.3763    0.0000 H   0  0  0  0  0  0  0  0  0  0  0  0
    3.7201    5.5008    0.0000 H   0  0  0  0  0  0  0  0  0  0  0  0
    5.9557    4.7701    0.0000 H   0  0  0  0  0  0  0  0  0  0  0  0
    6.4346    5.5046    0.0000 H   0  0  0  0  0  0  0  0  0  0  0  0
    5.7000    5.9834    0.0000 H   0  0  0  0  0  0  0  0  0  0  0  0
    6.3815   -3.0208    0.0000 H   0  0  0  0  0  0  0  0  0  0  0  0
    5.8819   -4.5208    0.0000 H   0  0  0  0  0  0  0  0  0  0  0  0
    4.8709   -5.9148    0.0000 H   0  0  0  0  0  0  0  0  0  0  0  0
    2.8660   -2.9008    0.0000 H   0  0  0  0  0  0  0  0  0  0  0  0
    1.4631   -3.7108    0.0000 H   0  0  0  0  0  0  0  0  0  0  0  0
    1.4631   -5.3308    0.0000 H   0  0  0  0  0  0  0  0  0  0  0  0
  1 21  1  0  0  0  0
  2  8  1  0  0  0  0
  2 14  1  0  0  0  0
  2 39  1  0  0  0  0
  3  9  1  0  0  0  0
  3 16  1  0  0  0  0
  3 40  1  0  0  0  0
  4 16  2  0  0  0  0
  4 19  1  0  0  0  0
  5 16  1  0  0  0  0
  5 21  2  0  0  0  0
  6 24  1  0  0  0  0
  6 25  1  0  0  0  0
  6 52  1  0  0  0  0
  7 25  1  0  0  0  0
  7 28  2  0  0  0  0
  8 10  1  0  0  0  0
  8 11  1  0  0  0  0
  8 29  1  0  0  0  0
  9 12  1  0  0  0  0
  9 13  1  0  0  0  0
  9 30  1  0  0  0  0
 10 12  1  0  0  0  0
 10 31  1  0  0  0  0
 10 32  1  0  0  0  0
 11 13  1  0  0  0  0
 11 33  1  0  0  0  0
 11 34  1  0  0  0  0
 12 35  1  0  0  0  0
 12 36  1  0  0  0  0
 13 37  1  0  0  0  0
 13 38  1  0  0  0  0
 14 15  1  0  0  0  0
 14 41  1  0  0  0  0
 14 42  1  0  0  0  0
 15 17  1  0  0  0  0
 15 18  1  0  0  0  0
 15 43  1  0  0  0  0
 17 44  1  0  0  0  0
 17 45  1  0  0  0  0
 17 46  1  0  0  0  0
 18 47  1  0  0  0  0
 18 48  1  0  0  0  0
 18 49  1  0  0  0  0
 19 20  1  0  0  0  0
 19 22  2  0  0  0  0
 20 23  1  0  0  0  0
 20 24  2  0  0  0  0
 21 22  1  0  0  0  0
 22 50  1  0  0  0  0
 23 25  2  0  0  0  0
 23 26  1  0  0  0  0
 24 51  1  0  0  0  0
 26 27  2  0  0  0  0
 26 53  1  0  0  0  0
 27 28  1  0  0  0  0
 27 54  1  0  0  0  0
 28 55  1  0  0  0  0
M  END
> <PUBCHEM_COMPOUND_CID>
49830305

> <PUBCHEM_COMPOUND_CANONICALIZED>
1

> <PUBCHEM_CACTVS_COMPLEXITY>
484

> <PUBCHEM_CACTVS_HBOND_ACCEPTOR>
5

> <PUBCHEM_CACTVS_HBOND_DONOR>
3

> <PUBCHEM_CACTVS_ROTATABLE_BOND>
6

> <PUBCHEM_CACTVS_SUBSKEYS>
AAADceB7gAAEAAAAAAAAAAAAAAAAAWAAAAA8WIAAAAAAAFgB/gAAHAIQAAAADSrBHyQ/sN7JkACgAzZnZACCgCmxB6AJ2aA4ZpiIKOLB29GEJAhokALIyCcQgIAOgAAAAAAAAAAAAQAAAAAAAAAAAAAAAA==

> <PUBCHEM_IUPAC_OPENEYE_NAME>
N4-[4-chloro-6-(1H-pyrrolo[2,3-b]pyridin-3-yl)pyrimidin-2-yl]-N1-isobutyl-cyclohexane-1,4-diamine

> <PUBCHEM_IUPAC_CAS_NAME>
N4-[4-chloro-6-(1H-pyrrolo[2,3-b]pyridin-3-yl)-2-pyrimidinyl]-N1-(2-methylpropyl)cyclohexane-1,4-diamine

> <PUBCHEM_IUPAC_NAME_MARKUP>
4-<I>N</I>-[4-chloro-6-(1<I>H</I>-pyrrolo[2,3-b]pyridin-3-yl)pyrimidin-2-yl]-1-<I>N</I>-(2-methylpropyl)cyclohexane-1,4-diamine

> <PUBCHEM_IUPAC_NAME>
4-N-[4-chloro-6-(1H-pyrrolo[2,3-b]pyridin-3-yl)pyrimidin-2-yl]-1-N-(2-methylpropyl)cyclohexane-1,4-diamine

> <PUBCHEM_IUPAC_SYSTEMATIC_NAME>
N4-[4-chloranyl-6-(1H-pyrrolo[2,3-b]pyridin-3-yl)pyrimidin-2-yl]-N1-(2-methylpropyl)cyclohexane-1,4-diamine

> <PUBCHEM_IUPAC_TRADITIONAL_NAME>
[4-chloro-6-(1H-pyrrolo[2,3-b]pyridin-3-yl)pyrimidin-2-yl]-[4-(isobutylamino)cyclohexyl]amine

> <PUBCHEM_IUPAC_INCHI>
InChI=1S/C21H27ClN6/c1-13(2)11-24-14-5-7-15(8-6-14)26-21-27-18(10-19(22)28-21)17-12-25-20-16(17)4-3-9-23-20/h3-4,9-10,12-15,24H,5-8,11H2,1-2H3,(H,23,25)(H,26,27,28)

> <PUBCHEM_IUPAC_INCHIKEY>
KTWBYGUSEYSRND-UHFFFAOYSA-N

> <PUBCHEM_XLOGP3_AA>
4.8

> <PUBCHEM_EXACT_MASS>
398.1985726

> <PUBCHEM_MOLECULAR_FORMULA>
C21H27ClN6

> <PUBCHEM_MOLECULAR_WEIGHT>
398.9

> <PUBCHEM_SMILES>
CC(C)CNC1CCC(CC1)NC2=NC(=CC(=N2)Cl)C3=CNC4=C3C=CC=N4

> <PUBCHEM_OPENEYE_CAN_SMILES>
CC(C)CNC1CCC(CC1)NC2=NC(=CC(=N2)Cl)C3=CNC4=C3C=CC=N4

> <PUBCHEM_OPENEYE_ISO_SMILES>
CC(C)CNC1CCC(CC1)NC2=NC(=CC(=N2)Cl)C3=CNC4=C3C=CC=N4

> <PUBCHEM_CACTVS_TPSA>
78.5

> <PUBCHEM_MONOISOTOPIC_WEIGHT>
398.1985726

> <PUBCHEM_TOTAL_CHARGE>
0

> <PUBCHEM_HEAVY_ATOM_COUNT>
28

> <PUBCHEM_ATOM_DEF_STEREO_COUNT>
0

> <PUBCHEM_ATOM_UDEF_STEREO_COUNT>
0

> <PUBCHEM_BOND_DEF_STEREO_COUNT>
0

> <PUBCHEM_BOND_UDEF_STEREO_COUNT>
0

> <PUBCHEM_ISOTOPIC_ATOM_COUNT>
0

> <PUBCHEM_COMPONENT_COUNT>
1

> <PUBCHEM_CACTVS_TAUTO_COUNT>
-1

> <PUBCHEM_COORDINATE_TYPE>
1
5
255

> <PUBCHEM_BONDANNOTATIONS>
19  22  8
20  23  8
20  24  8
21  22  8
23  25  8
23  26  8
26  27  8
27  28  8
4  16  8
4  19  8
5  16  8
5  21  8
6  24  8
6  25  8
7  25  8
7  28  8

$$$$
