5166
  -OEChem-03202505042D

 48 51  0     0  0  0  0  0  0999 V2000
    2.0000    0.5823    0.0000 F   0  0  0  0  0  0  0  0  0  0  0  0
   11.2265    0.5823    0.0000 O   0  0  0  0  0  0  0  0  0  0  0  0
    8.3453   -1.7694    0.0000 O   0  0  0  0  0  0  0  0  0  0  0  0
    7.4223    1.8184    0.0000 N   0  0  0  0  0  0  0  0  0  0  0  0
    6.1132    2.7694    0.0000 N   0  0  0  0  0  0  0  0  0  0  0  0
    7.4793   -0.2694    0.0000 N   0  0  0  0  0  0  0  0  0  0  0  0
    6.6132   -1.7694    0.0000 N   0  0  0  0  0  0  0  0  0  0  0  0
    8.3733    1.5094    0.0000 C   0  0  0  0  0  0  0  0  0  0  0  0
    9.1165    2.1785    0.0000 C   0  0  0  0  0  0  0  0  0  0  0  0
    8.5812    0.5312    0.0000 C   0  0  0  0  0  0  0  0  0  0  0  0
   10.0675    1.8695    0.0000 C   0  0  0  0  0  0  0  0  0  0  0  0
    9.5323    0.2222    0.0000 C   0  0  0  0  0  0  0  0  0  0  0  0
   10.2754    0.8913    0.0000 C   0  0  0  0  0  0  0  0  0  0  0  0
    6.6132    1.2306    0.0000 C   0  0  0  0  0  0  0  0  0  0  0  0
    7.1132    2.7694    0.0000 C   0  0  0  0  0  0  0  0  0  0  0  0
    5.8042    1.8184    0.0000 C   0  0  0  0  0  0  0  0  0  0  0  0
    6.6132    0.2306    0.0000 C   0  0  0  0  0  0  0  0  0  0  0  0
    4.8532    1.5094    0.0000 C   0  0  0  0  0  0  0  0  0  0  0  0
    5.7472   -0.2694    0.0000 C   0  0  0  0  0  0  0  0  0  0  0  0
    4.1100    2.1785    0.0000 C   0  0  0  0  0  0  0  0  0  0  0  0
    4.6453    0.5312    0.0000 C   0  0  0  0  0  0  0  0  0  0  0  0
    5.7472   -1.2694    0.0000 C   0  0  0  0  0  0  0  0  0  0  0  0
    7.4793   -1.2694    0.0000 C   0  0  0  0  0  0  0  0  0  0  0  0
    3.1590    1.8695    0.0000 C   0  0  0  0  0  0  0  0  0  0  0  0
    3.6942    0.2222    0.0000 C   0  0  0  0  0  0  0  0  0  0  0  0
    2.9511    0.8913    0.0000 C   0  0  0  0  0  0  0  0  0  0  0  0
    8.3453   -2.7694    0.0000 C   0  0  0  0  0  0  0  0  0  0  0  0
    8.2444    2.1158    0.0000 H   0  0  0  0  0  0  0  0  0  0  0  0
    9.4075    2.7259    0.0000 H   0  0  0  0  0  0  0  0  0  0  0  0
    8.6279    2.5602    0.0000 H   0  0  0  0  0  0  0  0  0  0  0  0
    7.9616    0.5096    0.0000 H   0  0  0  0  0  0  0  0  0  0  0  0
    8.4949   -0.0828    0.0000 H   0  0  0  0  0  0  0  0  0  0  0  0
   10.6871    1.8911    0.0000 H   0  0  0  0  0  0  0  0  0  0  0  0
   10.1538    2.4834    0.0000 H   0  0  0  0  0  0  0  0  0  0  0  0
    9.2412   -0.3252    0.0000 H   0  0  0  0  0  0  0  0  0  0  0  0
   10.0209   -0.1595    0.0000 H   0  0  0  0  0  0  0  0  0  0  0  0
   10.4043    0.2849    0.0000 H   0  0  0  0  0  0  0  0  0  0  0  0
    7.4777    3.2710    0.0000 H   0  0  0  0  0  0  0  0  0  0  0  0
   11.6872    0.9972    0.0000 H   0  0  0  0  0  0  0  0  0  0  0  0
    5.2103    0.0406    0.0000 H   0  0  0  0  0  0  0  0  0  0  0  0
    4.2389    2.7849    0.0000 H   0  0  0  0  0  0  0  0  0  0  0  0
    5.1060    0.1163    0.0000 H   0  0  0  0  0  0  0  0  0  0  0  0
    5.2103   -1.5794    0.0000 H   0  0  0  0  0  0  0  0  0  0  0  0
    2.6982    2.2843    0.0000 H   0  0  0  0  0  0  0  0  0  0  0  0
    3.5653   -0.3843    0.0000 H   0  0  0  0  0  0  0  0  0  0  0  0
    7.7253   -2.7694    0.0000 H   0  0  0  0  0  0  0  0  0  0  0  0
    8.3453   -3.3894    0.0000 H   0  0  0  0  0  0  0  0  0  0  0  0
    8.9653   -2.7694    0.0000 H   0  0  0  0  0  0  0  0  0  0  0  0
  1 26  1  0  0  0  0
  2 13  1  0  0  0  0
  2 39  1  0  0  0  0
  3 23  1  0  0  0  0
  3 27  1  0  0  0  0
  4  8  1  0  0  0  0
  4 14  1  0  0  0  0
  4 15  1  0  0  0  0
  5 15  2  0  0  0  0
  5 16  1  0  0  0  0
  6 17  2  0  0  0  0
  6 23  1  0  0  0  0
  7 22  1  0  0  0  0
  7 23  2  0  0  0  0
  8  9  1  0  0  0  0
  8 10  1  0  0  0  0
  8 28  1  0  0  0  0
  9 11  1  0  0  0  0
  9 29  1  0  0  0  0
  9 30  1  0  0  0  0
 10 12  1  0  0  0  0
 10 31  1  0  0  0  0
 10 32  1  0  0  0  0
 11 13  1  0  0  0  0
 11 33  1  0  0  0  0
 11 34  1  0  0  0  0
 12 13  1  0  0  0  0
 12 35  1  0  0  0  0
 12 36  1  0  0  0  0
 13 37  1  0  0  0  0
 14 16  2  0  0  0  0
 14 17  1  0  0  0  0
 15 38  1  0  0  0  0
 16 18  1  0  0  0  0
 17 19  1  0  0  0  0
 18 20  2  0  0  0  0
 18 21  1  0  0  0  0
 19 22  2  0  0  0  0
 19 40  1  0  0  0  0
 20 24  1  0  0  0  0
 20 41  1  0  0  0  0
 21 25  2  0  0  0  0
 21 42  1  0  0  0  0
 22 43  1  0  0  0  0
 24 26  2  0  0  0  0
 24 44  1  0  0  0  0
 25 26  1  0  0  0  0
 25 45  1  0  0  0  0
 27 46  1  0  0  0  0
 27 47  1  0  0  0  0
 27 48  1  0  0  0  0
M  END
> <PUBCHEM_COMPOUND_CID>
5166

> <PUBCHEM_COMPOUND_CANONICALIZED>
1

> <PUBCHEM_CACTVS_COMPLEXITY>
469

> <PUBCHEM_CACTVS_HBOND_ACCEPTOR>
6

> <PUBCHEM_CACTVS_HBOND_DONOR>
1

> <PUBCHEM_CACTVS_ROTATABLE_BOND>
4

> <PUBCHEM_CACTVS_SUBSKEYS>
AAADceB7sQAAAAAAAAAAAAAAAAAAAWAAAAA8YIAAAAAAAAAB8AAAHwAACAAADDzhng4/kJcMFgCgAzRnZACCgC0xEqAJ2CA4dJiIeKLA2dGUZAhsgALIyCewwMAOAAAAAAAAAAAAgAAAAAAAAAAAAAAAAA==

> <PUBCHEM_IUPAC_OPENEYE_NAME>
4-[4-(4-fluorophenyl)-5-(2-methoxypyrimidin-4-yl)imidazol-1-yl]cyclohexanol

> <PUBCHEM_IUPAC_CAS_NAME>
4-[4-(4-fluorophenyl)-5-(2-methoxy-4-pyrimidinyl)-1-imidazolyl]-1-cyclohexanol

> <PUBCHEM_IUPAC_NAME_MARKUP>
4-[4-(4-fluorophenyl)-5-(2-methoxypyrimidin-4-yl)imidazol-1-yl]cyclohexan-1-ol

> <PUBCHEM_IUPAC_NAME>
4-[4-(4-fluorophenyl)-5-(2-methoxypyrimidin-4-yl)imidazol-1-yl]cyclohexan-1-ol

> <PUBCHEM_IUPAC_SYSTEMATIC_NAME>
4-[4-(4-fluorophenyl)-5-(2-methoxypyrimidin-4-yl)imidazol-1-yl]cyclohexan-1-ol

> <PUBCHEM_IUPAC_TRADITIONAL_NAME>
4-[4-(4-fluorophenyl)-5-(2-methoxypyrimidin-4-yl)imidazol-1-yl]cyclohexanol

> <PUBCHEM_IUPAC_INCHI>
InChI=1S/C20H21FN4O2/c1-27-20-22-11-10-17(24-20)19-18(13-2-4-14(21)5-3-13)23-12-25(19)15-6-8-16(26)9-7-15/h2-5,10-12,15-16,26H,6-9H2,1H3

> <PUBCHEM_IUPAC_INCHIKEY>
ZQUSFAUAYSEREK-UHFFFAOYSA-N

> <PUBCHEM_XLOGP3_AA>
2.6

> <PUBCHEM_EXACT_MASS>
368.16485409

> <PUBCHEM_MOLECULAR_FORMULA>
C20H21FN4O2

> <PUBCHEM_MOLECULAR_WEIGHT>
368.4

> <PUBCHEM_SMILES>
COC1=NC=CC(=N1)C2=C(N=CN2C3CCC(CC3)O)C4=CC=C(C=C4)F

> <PUBCHEM_OPENEYE_CAN_SMILES>
COC1=NC=CC(=N1)C2=C(N=CN2C3CCC(CC3)O)C4=CC=C(C=C4)F

> <PUBCHEM_OPENEYE_ISO_SMILES>
COC1=NC=CC(=N1)C2=C(N=CN2C3CCC(CC3)O)C4=CC=C(C=C4)F

> <PUBCHEM_CACTVS_TPSA>
73.1

> <PUBCHEM_MONOISOTOPIC_WEIGHT>
368.16485409

> <PUBCHEM_TOTAL_CHARGE>
0

> <PUBCHEM_HEAVY_ATOM_COUNT>
27

> <PUBCHEM_ATOM_DEF_STEREO_COUNT>
0

> <PUBCHEM_ATOM_UDEF_STEREO_COUNT>
0

> <PUBCHEM_BOND_DEF_STEREO_COUNT>
0

> <PUBCHEM_BOND_UDEF_STEREO_COUNT>
0

> <PUBCHEM_ISOTOPIC_ATOM_COUNT>
0

> <PUBCHEM_COMPONENT_COUNT>
1

> <PUBCHEM_CACTVS_TAUTO_COUNT>
-1

> <PUBCHEM_COORDINATE_TYPE>
1
5
255

> <PUBCHEM_BONDANNOTATIONS>
14  16  8
17  19  8
18  20  8
18  21  8
19  22  8
20  24  8
21  25  8
24  26  8
25  26  8
4  14  8
4  15  8
5  15  8
5  16  8
6  17  8
6  23  8
7  22  8
7  23  8

$$$$
