52938983
  -OEChem-03202500282D

 64 67  0     0  0  0  0  0  0999 V2000
    2.0000    3.9840    0.0000 Cl  0  0  0  0  0  0  0  0  0  0  0  0
    3.7320    5.9840    0.0000 F   0  0  0  0  0  0  0  0  0  0  0  0
    4.7320    4.9840    0.0000 F   0  0  0  0  0  0  0  0  0  0  0  0
    2.7320    4.9840    0.0000 F   0  0  0  0  0  0  0  0  0  0  0  0
    8.0622   -3.5160    0.0000 O   0  0  0  0  0  0  0  0  0  0  0  0
   14.7226   -5.9840    0.0000 O   0  0  0  0  0  0  0  0  0  0  0  0
    4.5981    0.4840    0.0000 O   0  0  0  0  0  0  0  0  0  0  0  0
   11.3769   -2.8524    0.0000 N   0  0  0  0  0  0  0  0  0  0  0  0
    8.9282   -2.0160    0.0000 N   0  0  0  0  0  0  0  0  0  0  0  0
   10.8769   -3.7185    0.0000 N   0  0  0  0  0  0  0  0  0  0  0  0
   10.9157   -1.1311    0.0000 N   0  0  0  0  0  0  0  0  0  0  0  0
    6.3301    0.4840    0.0000 N   0  0  0  0  0  0  0  0  0  0  0  0
    5.4641    1.9840    0.0000 N   0  0  0  0  0  0  0  0  0  0  0  0
   12.3714   -2.7479    0.0000 C   0  0  0  0  0  0  0  0  0  0  0  0
   10.7078   -2.1093    0.0000 C   0  0  0  0  0  0  0  0  0  0  0  0
    9.7942   -2.5160    0.0000 C   0  0  0  0  0  0  0  0  0  0  0  0
   12.9592   -3.5569    0.0000 C   0  0  0  0  0  0  0  0  0  0  0  0
    7.1962   -2.0160    0.0000 C   0  0  0  0  0  0  0  0  0  0  0  0
    6.3301   -2.5160    0.0000 C   0  0  0  0  0  0  0  0  0  0  0  0
    9.8988   -3.5106    0.0000 C   0  0  0  0  0  0  0  0  0  0  0  0
    8.0622   -2.5160    0.0000 C   0  0  0  0  0  0  0  0  0  0  0  0
    7.1962   -1.0160    0.0000 C   0  0  0  0  0  0  0  0  0  0  0  0
    6.3301   -0.5160    0.0000 C   0  0  0  0  0  0  0  0  0  0  0  0
   13.9537   -3.4524    0.0000 C   0  0  0  0  0  0  0  0  0  0  0  0
   12.5525   -4.4705    0.0000 C   0  0  0  0  0  0  0  0  0  0  0  0
    5.4641   -2.0160    0.0000 C   0  0  0  0  0  0  0  0  0  0  0  0
    5.4641   -1.0160    0.0000 C   0  0  0  0  0  0  0  0  0  0  0  0
    6.3301   -3.5160    0.0000 C   0  0  0  0  0  0  0  0  0  0  0  0
   14.5415   -4.2614    0.0000 C   0  0  0  0  0  0  0  0  0  0  0  0
   13.1403   -5.2795    0.0000 C   0  0  0  0  0  0  0  0  0  0  0  0
   14.1348   -5.1750    0.0000 C   0  0  0  0  0  0  0  0  0  0  0  0
    4.5981    2.4840    0.0000 C   0  0  0  0  0  0  0  0  0  0  0  0
    5.4641    0.9840    0.0000 C   0  0  0  0  0  0  0  0  0  0  0  0
    3.7320    3.9840    0.0000 C   0  0  0  0  0  0  0  0  0  0  0  0
    4.5981    3.4840    0.0000 C   0  0  0  0  0  0  0  0  0  0  0  0
    3.7320    1.9840    0.0000 C   0  0  0  0  0  0  0  0  0  0  0  0
    2.8660    3.4840    0.0000 C   0  0  0  0  0  0  0  0  0  0  0  0
    2.8660    2.4840    0.0000 C   0  0  0  0  0  0  0  0  0  0  0  0
    3.7320    4.9840    0.0000 C   0  0  0  0  0  0  0  0  0  0  0  0
   15.7171   -5.8794    0.0000 C   0  0  0  0  0  0  0  0  0  0  0  0
   12.9287   -2.4761    0.0000 H   0  0  0  0  0  0  0  0  0  0  0  0
   12.2005   -2.1519    0.0000 H   0  0  0  0  0  0  0  0  0  0  0  0
    8.9282   -1.3960    0.0000 H   0  0  0  0  0  0  0  0  0  0  0  0
    9.4380   -3.9254    0.0000 H   0  0  0  0  0  0  0  0  0  0  0  0
    7.7331   -0.7060    0.0000 H   0  0  0  0  0  0  0  0  0  0  0  0
   14.2059   -2.8860    0.0000 H   0  0  0  0  0  0  0  0  0  0  0  0
   11.9359   -4.5353    0.0000 H   0  0  0  0  0  0  0  0  0  0  0  0
    4.9272   -2.3260    0.0000 H   0  0  0  0  0  0  0  0  0  0  0  0
    4.9272   -0.7060    0.0000 H   0  0  0  0  0  0  0  0  0  0  0  0
    5.7101   -3.5160    0.0000 H   0  0  0  0  0  0  0  0  0  0  0  0
    6.3301   -4.1360    0.0000 H   0  0  0  0  0  0  0  0  0  0  0  0
    6.9501   -3.5160    0.0000 H   0  0  0  0  0  0  0  0  0  0  0  0
   11.5053   -0.9396    0.0000 H   0  0  0  0  0  0  0  0  0  0  0  0
   10.4549   -0.7163    0.0000 H   0  0  0  0  0  0  0  0  0  0  0  0
   15.1581   -4.1966    0.0000 H   0  0  0  0  0  0  0  0  0  0  0  0
   12.8881   -5.8459    0.0000 H   0  0  0  0  0  0  0  0  0  0  0  0
    6.8671    0.7940    0.0000 H   0  0  0  0  0  0  0  0  0  0  0  0
    6.0010    2.2940    0.0000 H   0  0  0  0  0  0  0  0  0  0  0  0
    5.1350    3.7940    0.0000 H   0  0  0  0  0  0  0  0  0  0  0  0
    3.7320    1.3640    0.0000 H   0  0  0  0  0  0  0  0  0  0  0  0
    2.3291    2.1740    0.0000 H   0  0  0  0  0  0  0  0  0  0  0  0
   15.7819   -6.4960    0.0000 H   0  0  0  0  0  0  0  0  0  0  0  0
   16.3337   -5.8146    0.0000 H   0  0  0  0  0  0  0  0  0  0  0  0
   15.6523   -5.2628    0.0000 H   0  0  0  0  0  0  0  0  0  0  0  0
  1 37  1  0  0  0  0
  2 39  1  0  0  0  0
  3 39  1  0  0  0  0
  4 39  1  0  0  0  0
  5 21  2  0  0  0  0
  6 31  1  0  0  0  0
  6 40  1  0  0  0  0
  7 33  2  0  0  0  0
  8 10  1  0  0  0  0
  8 14  1  0  0  0  0
  8 15  1  0  0  0  0
  9 16  1  0  0  0  0
  9 21  1  0  0  0  0
  9 43  1  0  0  0  0
 10 20  2  0  0  0  0
 11 15  1  0  0  0  0
 11 53  1  0  0  0  0
 11 54  1  0  0  0  0
 12 23  1  0  0  0  0
 12 33  1  0  0  0  0
 12 57  1  0  0  0  0
 13 32  1  0  0  0  0
 13 33  1  0  0  0  0
 13 58  1  0  0  0  0
 14 17  1  0  0  0  0
 14 41  1  0  0  0  0
 14 42  1  0  0  0  0
 15 16  2  0  0  0  0
 16 20  1  0  0  0  0
 17 24  2  0  0  0  0
 17 25  1  0  0  0  0
 18 19  2  0  0  0  0
 18 21  1  0  0  0  0
 18 22  1  0  0  0  0
 19 26  1  0  0  0  0
 19 28  1  0  0  0  0
 20 44  1  0  0  0  0
 22 23  2  0  0  0  0
 22 45  1  0  0  0  0
 23 27  1  0  0  0  0
 24 29  1  0  0  0  0
 24 46  1  0  0  0  0
 25 30  2  0  0  0  0
 25 47  1  0  0  0  0
 26 27  2  0  0  0  0
 26 48  1  0  0  0  0
 27 49  1  0  0  0  0
 28 50  1  0  0  0  0
 28 51  1  0  0  0  0
 28 52  1  0  0  0  0
 29 31  2  0  0  0  0
 29 55  1  0  0  0  0
 30 31  1  0  0  0  0
 30 56  1  0  0  0  0
 32 35  2  0  0  0  0
 32 36  1  0  0  0  0
 34 35  1  0  0  0  0
 34 37  2  0  0  0  0
 34 39  1  0  0  0  0
 35 59  1  0  0  0  0
 36 38  2  0  0  0  0
 36 60  1  0  0  0  0
 37 38  1  0  0  0  0
 38 61  1  0  0  0  0
 40 62  1  0  0  0  0
 40 63  1  0  0  0  0
 40 64  1  0  0  0  0
M  END
> <PUBCHEM_COMPOUND_CID>
52938983

> <PUBCHEM_COMPOUND_CANONICALIZED>
1

> <PUBCHEM_CACTVS_COMPLEXITY>
862

> <PUBCHEM_CACTVS_HBOND_ACCEPTOR>
8

> <PUBCHEM_CACTVS_HBOND_DONOR>
4

> <PUBCHEM_CACTVS_ROTATABLE_BOND>
7

> <PUBCHEM_CACTVS_SUBSKEYS>
AAADceB7sYAEAAAAAAAAAAAAAAAAAWAAAAAwYMAAAAAAAAAB1AAAHwIYAAAADA7BmjY/9pLIBACqAjd3dACSDAMltwAc2CEuftiMZrLF99uUtSh83BPI6aec2IKOqABAQAARAABQAICAACIAAAAAAAAAAA==

> <PUBCHEM_IUPAC_OPENEYE_NAME>
N-[5-amino-1-[(4-methoxyphenyl)methyl]pyrazol-4-yl]-5-[[4-chloro-3-(trifluoromethyl)phenyl]carbamoylamino]-2-methyl-benzamide

> <PUBCHEM_IUPAC_CAS_NAME>
N-[5-amino-1-[(4-methoxyphenyl)methyl]-4-pyrazolyl]-5-[[[4-chloro-3-(trifluoromethyl)anilino]-oxomethyl]amino]-2-methylbenzamide

> <PUBCHEM_IUPAC_NAME_MARKUP>
<I>N</I>-[5-amino-1-[(4-methoxyphenyl)methyl]pyrazol-4-yl]-5-[[4-chloro-3-(trifluoromethyl)phenyl]carbamoylamino]-2-methylbenzamide

> <PUBCHEM_IUPAC_NAME>
N-[5-amino-1-[(4-methoxyphenyl)methyl]pyrazol-4-yl]-5-[[4-chloro-3-(trifluoromethyl)phenyl]carbamoylamino]-2-methylbenzamide

> <PUBCHEM_IUPAC_SYSTEMATIC_NAME>
N-[5-azanyl-1-[(4-methoxyphenyl)methyl]pyrazol-4-yl]-5-[[4-chloranyl-3-(trifluoromethyl)phenyl]carbamoylamino]-2-methyl-benzamide

> <PUBCHEM_IUPAC_TRADITIONAL_NAME>
N-(5-amino-1-p-anisyl-pyrazol-4-yl)-5-[[4-chloro-3-(trifluoromethyl)phenyl]carbamoylamino]-2-methyl-benzamide

> <PUBCHEM_IUPAC_INCHI>
InChI=1S/C27H24ClF3N6O3/c1-15-3-6-17(34-26(39)35-18-7-10-22(28)21(12-18)27(29,30)31)11-20(15)25(38)36-23-13-33-37(24(23)32)14-16-4-8-19(40-2)9-5-16/h3-13H,14,32H2,1-2H3,(H,36,38)(H2,34,35,39)

> <PUBCHEM_IUPAC_INCHIKEY>
ZJDFSKSBQBPOSK-UHFFFAOYSA-N

> <PUBCHEM_XLOGP3_AA>
4.7

> <PUBCHEM_EXACT_MASS>
572.1550508

> <PUBCHEM_MOLECULAR_FORMULA>
C27H24ClF3N6O3

> <PUBCHEM_MOLECULAR_WEIGHT>
573.0

> <PUBCHEM_SMILES>
CC1=C(C=C(C=C1)NC(=O)NC2=CC(=C(C=C2)Cl)C(F)(F)F)C(=O)NC3=C(N(N=C3)CC4=CC=C(C=C4)OC)N

> <PUBCHEM_OPENEYE_CAN_SMILES>
CC1=C(C=C(C=C1)NC(=O)NC2=CC(=C(C=C2)Cl)C(F)(F)F)C(=O)NC3=C(N(N=C3)CC4=CC=C(C=C4)OC)N

> <PUBCHEM_OPENEYE_ISO_SMILES>
CC1=C(C=C(C=C1)NC(=O)NC2=CC(=C(C=C2)Cl)C(F)(F)F)C(=O)NC3=C(N(N=C3)CC4=CC=C(C=C4)OC)N

> <PUBCHEM_CACTVS_TPSA>
123

> <PUBCHEM_MONOISOTOPIC_WEIGHT>
572.1550508

> <PUBCHEM_TOTAL_CHARGE>
0

> <PUBCHEM_HEAVY_ATOM_COUNT>
40

> <PUBCHEM_ATOM_DEF_STEREO_COUNT>
0

> <PUBCHEM_ATOM_UDEF_STEREO_COUNT>
0

> <PUBCHEM_BOND_DEF_STEREO_COUNT>
0

> <PUBCHEM_BOND_UDEF_STEREO_COUNT>
0

> <PUBCHEM_ISOTOPIC_ATOM_COUNT>
0

> <PUBCHEM_COMPONENT_COUNT>
1

> <PUBCHEM_CACTVS_TAUTO_COUNT>
-1

> <PUBCHEM_COORDINATE_TYPE>
1
5
255

> <PUBCHEM_BONDANNOTATIONS>
10  20  8
15  16  8
16  20  8
17  24  8
17  25  8
18  19  8
18  22  8
19  26  8
22  23  8
23  27  8
24  29  8
25  30  8
26  27  8
29  31  8
30  31  8
32  35  8
32  36  8
34  35  8
34  37  8
36  38  8
37  38  8
8  10  8
8  15  8

$$$$
