11713159
  -OEChem-03192523172D

 55 58  0     1  0  0  0  0  0999 V2000
    4.5981    2.9330    0.0000 S   0  0  0  0  0  0  0  0  0  0  0  0
    3.7320   -3.5670    0.0000 F   0  0  0  0  0  0  0  0  0  0  0  0
    5.0981   -3.9330    0.0000 F   0  0  0  0  0  0  0  0  0  0  0  0
    4.0981   -2.2010    0.0000 F   0  0  0  0  0  0  0  0  0  0  0  0
   13.1901   -2.0670    0.0000 O   0  0  0  0  0  0  0  0  0  0  0  0
    3.5981    2.9330    0.0000 O   0  0  0  0  0  0  0  0  0  0  0  0
    5.5981    2.9330    0.0000 O   0  0  0  0  0  0  0  0  0  0  0  0
   11.6065   -2.8717    0.0000 N   0  0  0  0  0  0  0  0  0  0  0  0
    4.5981    1.9330    0.0000 N   0  0  3  0  0  0  0  0  0  0  0  0
    4.5981   -1.0670    0.0000 N   0  0  0  0  0  0  0  0  0  0  0  0
    8.0622   -1.0670    0.0000 N   0  0  0  0  0  0  0  0  0  0  0  0
    2.8660    1.9330    0.0000 N   0  0  0  0  0  0  0  0  0  0  0  0
    6.3301   -1.0670    0.0000 N   0  0  0  0  0  0  0  0  0  0  0  0
    7.1962   -2.5670    0.0000 N   0  0  0  0  0  0  0  0  0  0  0  0
   10.6603   -1.5670    0.0000 C   0  0  0  0  0  0  0  0  0  0  0  0
   11.6065   -1.2623    0.0000 C   0  0  0  0  0  0  0  0  0  0  0  0
   10.6603   -2.5670    0.0000 C   0  0  0  0  0  0  0  0  0  0  0  0
    9.7942   -1.0670    0.0000 C   0  0  0  0  0  0  0  0  0  0  0  0
    3.7320    0.4330    0.0000 C   0  0  0  0  0  0  0  0  0  0  0  0
    8.9282   -1.5670    0.0000 C   0  0  0  0  0  0  0  0  0  0  0  0
   12.1901   -2.0670    0.0000 C   0  0  0  0  0  0  0  0  0  0  0  0
    4.5981   -0.0670    0.0000 C   0  0  0  0  0  0  0  0  0  0  0  0
    3.7320    1.4330    0.0000 C   0  0  0  0  0  0  0  0  0  0  0  0
    9.7942   -3.0670    0.0000 C   0  0  0  0  0  0  0  0  0  0  0  0
    8.9282   -2.5670    0.0000 C   0  0  0  0  0  0  0  0  0  0  0  0
    5.4641   -1.5670    0.0000 C   0  0  0  0  0  0  0  0  0  0  0  0
    2.8660   -0.0670    0.0000 C   0  0  0  0  0  0  0  0  0  0  0  0
    7.1962   -1.5670    0.0000 C   0  0  0  0  0  0  0  0  0  0  0  0
    5.4641   -2.5670    0.0000 C   0  0  0  0  0  0  0  0  0  0  0  0
    5.4641    1.4330    0.0000 C   0  0  0  0  0  0  0  0  0  0  0  0
    4.5981    3.9330    0.0000 C   0  0  0  0  0  0  0  0  0  0  0  0
    2.0000    0.4330    0.0000 C   0  0  0  0  0  0  0  0  0  0  0  0
    2.0000    1.4330    0.0000 C   0  0  0  0  0  0  0  0  0  0  0  0
    6.3301   -3.0670    0.0000 C   0  0  0  0  0  0  0  0  0  0  0  0
    4.5981   -3.0670    0.0000 C   0  0  0  0  0  0  0  0  0  0  0  0
   12.1439   -0.9530    0.0000 H   0  0  0  0  0  0  0  0  0  0  0  0
   11.3554   -0.6953    0.0000 H   0  0  0  0  0  0  0  0  0  0  0  0
    9.7942   -0.4470    0.0000 H   0  0  0  0  0  0  0  0  0  0  0  0
    5.2087   -0.1746    0.0000 H   0  0  0  0  0  0  0  0  0  0  0  0
    4.8101    0.5156    0.0000 H   0  0  0  0  0  0  0  0  0  0  0  0
   11.7991   -3.4610    0.0000 H   0  0  0  0  0  0  0  0  0  0  0  0
    9.7942   -3.6870    0.0000 H   0  0  0  0  0  0  0  0  0  0  0  0
    8.3913   -2.8770    0.0000 H   0  0  0  0  0  0  0  0  0  0  0  0
    4.0611   -1.3770    0.0000 H   0  0  0  0  0  0  0  0  0  0  0  0
    8.0622   -0.4470    0.0000 H   0  0  0  0  0  0  0  0  0  0  0  0
    2.8660   -0.6870    0.0000 H   0  0  0  0  0  0  0  0  0  0  0  0
    5.1541    0.8961    0.0000 H   0  0  0  0  0  0  0  0  0  0  0  0
    6.0010    1.1230    0.0000 H   0  0  0  0  0  0  0  0  0  0  0  0
    5.7741    1.9700    0.0000 H   0  0  0  0  0  0  0  0  0  0  0  0
    5.2181    3.9330    0.0000 H   0  0  0  0  0  0  0  0  0  0  0  0
    4.5981    4.5530    0.0000 H   0  0  0  0  0  0  0  0  0  0  0  0
    3.9781    3.9330    0.0000 H   0  0  0  0  0  0  0  0  0  0  0  0
    1.4631    0.1230    0.0000 H   0  0  0  0  0  0  0  0  0  0  0  0
    1.4631    1.7430    0.0000 H   0  0  0  0  0  0  0  0  0  0  0  0
    6.3301   -3.6870    0.0000 H   0  0  0  0  0  0  0  0  0  0  0  0
  1  6  2  0  0  0  0
  1  7  2  0  0  0  0
  1  9  1  0  0  0  0
  1 31  1  0  0  0  0
  2 35  1  0  0  0  0
  3 35  1  0  0  0  0
  4 35  1  0  0  0  0
  5 21  2  0  0  0  0
  8 17  1  0  0  0  0
  8 21  1  0  0  0  0
  8 41  1  0  0  0  0
  9 23  1  0  0  0  0
  9 30  1  0  0  0  0
 10 22  1  0  0  0  0
 10 26  1  0  0  0  0
 10 44  1  0  0  0  0
 11 20  1  0  0  0  0
 11 28  1  0  0  0  0
 11 45  1  0  0  0  0
 12 23  1  0  0  0  0
 12 33  2  0  0  0  0
 13 26  2  0  0  0  0
 13 28  1  0  0  0  0
 14 28  2  0  0  0  0
 14 34  1  0  0  0  0
 15 16  1  0  0  0  0
 15 17  2  0  0  0  0
 15 18  1  0  0  0  0
 16 21  1  0  0  0  0
 16 36  1  0  0  0  0
 16 37  1  0  0  0  0
 17 24  1  0  0  0  0
 18 20  2  0  0  0  0
 18 38  1  0  0  0  0
 19 22  1  0  0  0  0
 19 23  2  0  0  0  0
 19 27  1  0  0  0  0
 20 25  1  0  0  0  0
 22 39  1  0  0  0  0
 22 40  1  0  0  0  0
 24 25  2  0  0  0  0
 24 42  1  0  0  0  0
 25 43  1  0  0  0  0
 26 29  1  0  0  0  0
 27 32  2  0  0  0  0
 27 46  1  0  0  0  0
 29 34  2  0  0  0  0
 29 35  1  0  0  0  0
 30 47  1  0  0  0  0
 30 48  1  0  0  0  0
 30 49  1  0  0  0  0
 31 50  1  0  0  0  0
 31 51  1  0  0  0  0
 31 52  1  0  0  0  0
 32 33  1  0  0  0  0
 32 53  1  0  0  0  0
 33 54  1  0  0  0  0
 34 55  1  0  0  0  0
M  END
> <PUBCHEM_COMPOUND_CID>
11713159

> <PUBCHEM_COMPOUND_CANONICALIZED>
1

> <PUBCHEM_CACTVS_COMPLEXITY>
856

> <PUBCHEM_CACTVS_HBOND_ACCEPTOR>
12

> <PUBCHEM_CACTVS_HBOND_DONOR>
3

> <PUBCHEM_CACTVS_ROTATABLE_BOND>
7

> <PUBCHEM_CACTVS_SUBSKEYS>
AAADceB7sYBAAAAAAAAAAAAAAAAAAWAAAAA8WIAAAAAAAFgB8AAAHwQQQAAADAjBmhS/8JbIEAKoAjd3dHCCgCkxAqAJ2KE4ZJiIKPLA3dGEJAholALIyCcciYCeAACAQAACAAAAAQCAAAQAAAAAAAAAAA==

> <PUBCHEM_IUPAC_OPENEYE_NAME>
N-methyl-N-[3-[[[2-[(2-oxoindolin-5-yl)amino]-5-(trifluoromethyl)pyrimidin-4-yl]amino]methyl]-2-pyridyl]methanesulfonamide

> <PUBCHEM_IUPAC_CAS_NAME>
N-methyl-N-[3-[[[2-[(2-oxo-1,3-dihydroindol-5-yl)amino]-5-(trifluoromethyl)-4-pyrimidinyl]amino]methyl]-2-pyridinyl]methanesulfonamide

> <PUBCHEM_IUPAC_NAME_MARKUP>
<I>N</I>-methyl-<I>N</I>-[3-[[[2-[(2-oxo-1,3-dihydroindol-5-yl)amino]-5-(trifluoromethyl)pyrimidin-4-yl]amino]methyl]pyridin-2-yl]methanesulfonamide

> <PUBCHEM_IUPAC_NAME>
N-methyl-N-[3-[[[2-[(2-oxo-1,3-dihydroindol-5-yl)amino]-5-(trifluoromethyl)pyrimidin-4-yl]amino]methyl]pyridin-2-yl]methanesulfonamide

> <PUBCHEM_IUPAC_SYSTEMATIC_NAME>
N-methyl-N-[3-[[[2-[(2-oxidanylidene-1,3-dihydroindol-5-yl)amino]-5-(trifluoromethyl)pyrimidin-4-yl]amino]methyl]pyridin-2-yl]methanesulfonamide

> <PUBCHEM_IUPAC_TRADITIONAL_NAME>
N-[3-[[[2-[(2-ketoindolin-5-yl)amino]-5-(trifluoromethyl)pyrimidin-4-yl]amino]methyl]-2-pyridyl]-N-methyl-methanesulfonamide

> <PUBCHEM_IUPAC_INCHI>
InChI=1S/C21H20F3N7O3S/c1-31(35(2,33)34)19-12(4-3-7-25-19)10-26-18-15(21(22,23)24)11-27-20(30-18)28-14-5-6-16-13(8-14)9-17(32)29-16/h3-8,11H,9-10H2,1-2H3,(H,29,32)(H2,26,27,28,30)

> <PUBCHEM_IUPAC_INCHIKEY>
MZDKLVOWGIOKTN-UHFFFAOYSA-N

> <PUBCHEM_XLOGP3_AA>
2

> <PUBCHEM_EXACT_MASS>
507.13004319

> <PUBCHEM_MOLECULAR_FORMULA>
C21H20F3N7O3S

> <PUBCHEM_MOLECULAR_WEIGHT>
507.5

> <PUBCHEM_SMILES>
CN(C1=C(C=CC=N1)CNC2=NC(=NC=C2C(F)(F)F)NC3=CC4=C(C=C3)NC(=O)C4)S(=O)(=O)C

> <PUBCHEM_OPENEYE_CAN_SMILES>
CN(C1=C(C=CC=N1)CNC2=NC(=NC=C2C(F)(F)F)NC3=CC4=C(C=C3)NC(=O)C4)S(=O)(=O)C

> <PUBCHEM_OPENEYE_ISO_SMILES>
CN(C1=C(C=CC=N1)CNC2=NC(=NC=C2C(F)(F)F)NC3=CC4=C(C=C3)NC(=O)C4)S(=O)(=O)C

> <PUBCHEM_CACTVS_TPSA>
138

> <PUBCHEM_MONOISOTOPIC_WEIGHT>
507.13004319

> <PUBCHEM_TOTAL_CHARGE>
0

> <PUBCHEM_HEAVY_ATOM_COUNT>
35

> <PUBCHEM_ATOM_DEF_STEREO_COUNT>
0

> <PUBCHEM_ATOM_UDEF_STEREO_COUNT>
0

> <PUBCHEM_BOND_DEF_STEREO_COUNT>
0

> <PUBCHEM_BOND_UDEF_STEREO_COUNT>
0

> <PUBCHEM_ISOTOPIC_ATOM_COUNT>
0

> <PUBCHEM_COMPONENT_COUNT>
1

> <PUBCHEM_CACTVS_TAUTO_COUNT>
-1

> <PUBCHEM_COORDINATE_TYPE>
1
5
255

> <PUBCHEM_BONDANNOTATIONS>
12  23  8
12  33  8
13  26  8
13  28  8
14  28  8
14  34  8
15  17  8
15  18  8
17  24  8
18  20  8
19  23  8
19  27  8
20  25  8
24  25  8
26  29  8
27  32  8
29  34  8
32  33  8

$$$$
