44340932
  -OEChem-03202505332D

 74 80  0     1  0  0  0  0  0999 V2000
    5.0389   -0.0103    0.0000 O   0  0  0  0  0  0  0  0  0  0  0  0
    4.4755   -2.6837    0.0000 O   0  0  0  0  0  0  0  0  0  0  0  0
    3.0354   -2.2433    0.0000 O   0  0  0  0  0  0  0  0  0  0  0  0
    2.4141   -0.3422    0.0000 O   0  0  0  0  0  0  0  0  0  0  0  0
    2.7712    1.3526    0.0000 O   0  0  0  0  0  0  0  0  0  0  0  0
    5.4804   -3.5914    0.0000 O   0  0  0  0  0  0  0  0  0  0  0  0
   10.0540   -1.7552    0.0000 O   0  0  0  0  0  0  0  0  0  0  0  0
   10.0540    1.7552    0.0000 O   0  0  0  0  0  0  0  0  0  0  0  0
    8.5182   -4.5566    0.0000 O   0  0  0  0  0  0  0  0  0  0  0  0
    5.3010    3.1060    0.0000 O   0  0  0  0  0  0  0  0  0  0  0  0
    8.5182    4.5566    0.0000 O   0  0  0  0  0  0  0  0  0  0  0  0
   13.3270    1.7320    0.0000 O   0  0  0  0  0  0  0  0  0  0  0  0
   11.8270    2.5981    0.0000 O   0  0  0  0  0  0  0  0  0  0  0  0
    6.3281   -1.1671    0.0000 N   0  0  0  0  0  0  0  0  0  0  0  0
    6.3281    1.1671    0.0000 N   0  0  0  0  0  0  0  0  0  0  0  0
   10.3270    0.0000    0.0000 N   0  0  0  0  0  0  0  0  0  0  0  0
   11.3270    0.0000    0.0000 N   0  0  0  0  0  0  0  0  0  0  0  0
    5.3496   -0.9609    0.0000 C   0  0  3  0  0  0  0  0  0  0  0  0
    4.6817   -1.7052    0.0000 C   0  0  3  0  0  0  0  0  0  0  0  0
    7.0651   -0.5000    0.0000 C   0  0  0  0  0  0  0  0  0  0  0  0
    3.7032   -1.4990    0.0000 C   0  0  3  0  0  0  0  0  0  0  0  0
    3.3926   -0.5484    0.0000 C   0  0  3  0  0  0  0  0  0  0  0  0
    7.9311   -1.0000    0.0000 C   0  0  0  0  0  0  0  0  0  0  0  0
    4.0604    0.1959    0.0000 C   0  0  3  0  0  0  0  0  0  0  0  0
    6.7332   -2.0749    0.0000 C   0  0  0  0  0  0  0  0  0  0  0  0
    7.0651    0.5000    0.0000 C   0  0  0  0  0  0  0  0  0  0  0  0
    7.7219   -1.9718    0.0000 C   0  0  0  0  0  0  0  0  0  0  0  0
    8.7972   -0.5000    0.0000 C   0  0  0  0  0  0  0  0  0  0  0  0
    7.9311    1.0000    0.0000 C   0  0  0  0  0  0  0  0  0  0  0  0
    8.7972    0.5000    0.0000 C   0  0  0  0  0  0  0  0  0  0  0  0
    7.7219    1.9718    0.0000 C   0  0  0  0  0  0  0  0  0  0  0  0
    3.7498    1.1464    0.0000 C   0  0  0  0  0  0  0  0  0  0  0  0
    6.7332    2.0749    0.0000 C   0  0  0  0  0  0  0  0  0  0  0  0
    6.2967   -3.0138    0.0000 C   0  0  0  0  0  0  0  0  0  0  0  0
    9.7434   -0.8047    0.0000 C   0  0  0  0  0  0  0  0  0  0  0  0
    9.7434    0.8047    0.0000 C   0  0  0  0  0  0  0  0  0  0  0  0
    8.3427   -2.8006    0.0000 C   0  0  0  0  0  0  0  0  0  0  0  0
    6.8981   -3.8567    0.0000 C   0  0  0  0  0  0  0  0  0  0  0  0
    7.9280   -3.7494    0.0000 C   0  0  0  0  0  0  0  0  0  0  0  0
    8.3427    2.8006    0.0000 C   0  0  0  0  0  0  0  0  0  0  0  0
    6.2967    3.0138    0.0000 C   0  0  0  0  0  0  0  0  0  0  0  0
    7.9280    3.7494    0.0000 C   0  0  0  0  0  0  0  0  0  0  0  0
   11.8270    0.8660    0.0000 C   0  0  0  0  0  0  0  0  0  0  0  0
    6.8981    3.8567    0.0000 C   0  0  0  0  0  0  0  0  0  0  0  0
   12.8270    0.8660    0.0000 C   0  0  0  0  0  0  0  0  0  0  0  0
   11.3270    1.7320    0.0000 C   0  0  0  0  0  0  0  0  0  0  0  0
    5.7636   -0.4994    0.0000 H   0  0  0  0  0  0  0  0  0  0  0  0
    5.2346   -1.9857    0.0000 H   0  0  0  0  0  0  0  0  0  0  0  0
    3.8958   -2.0883    0.0000 H   0  0  0  0  0  0  0  0  0  0  0  0
    2.9785   -1.0099    0.0000 H   0  0  0  0  0  0  0  0  0  0  0  0
    4.4745    0.6573    0.0000 H   0  0  0  0  0  0  0  0  0  0  0  0
    5.7214    1.0392    0.0000 H   0  0  0  0  0  0  0  0  0  0  0  0
    4.3636    1.2337    0.0000 H   0  0  0  0  0  0  0  0  0  0  0  0
    3.7703    1.7660    0.0000 H   0  0  0  0  0  0  0  0  0  0  0  0
    8.9586   -2.7292    0.0000 H   0  0  0  0  0  0  0  0  0  0  0  0
    3.8863   -2.8763    0.0000 H   0  0  0  0  0  0  0  0  0  0  0  0
    2.4287   -2.1154    0.0000 H   0  0  0  0  0  0  0  0  0  0  0  0
    2.0000   -0.8037    0.0000 H   0  0  0  0  0  0  0  0  0  0  0  0
    6.6433   -4.4219    0.0000 H   0  0  0  0  0  0  0  0  0  0  0  0
    8.9586    2.7292    0.0000 H   0  0  0  0  0  0  0  0  0  0  0  0
   11.6370   -0.5369    0.0000 H   0  0  0  0  0  0  0  0  0  0  0  0
   12.1370    0.3291    0.0000 H   0  0  0  0  0  0  0  0  0  0  0  0
    2.5786    1.9419    0.0000 H   0  0  0  0  0  0  0  0  0  0  0  0
    6.6433    4.4219    0.0000 H   0  0  0  0  0  0  0  0  0  0  0  0
    5.5375   -4.2088    0.0000 H   0  0  0  0  0  0  0  0  0  0  0  0
    8.2677   -5.1238    0.0000 H   0  0  0  0  0  0  0  0  0  0  0  0
   12.7193    0.2554    0.0000 H   0  0  0  0  0  0  0  0  0  0  0  0
   13.4096    0.6540    0.0000 H   0  0  0  0  0  0  0  0  0  0  0  0
   10.8520    2.1306    0.0000 H   0  0  0  0  0  0  0  0  0  0  0  0
   10.8520    1.3335    0.0000 H   0  0  0  0  0  0  0  0  0  0  0  0
    5.0418    3.6692    0.0000 H   0  0  0  0  0  0  0  0  0  0  0  0
    8.2677    5.1238    0.0000 H   0  0  0  0  0  0  0  0  0  0  0  0
   13.9470    1.7320    0.0000 H   0  0  0  0  0  0  0  0  0  0  0  0
   11.5170    3.1350    0.0000 H   0  0  0  0  0  0  0  0  0  0  0  0
  1 18  1  0  0  0  0
  1 24  1  0  0  0  0
  2 19  1  0  0  0  0
  2 56  1  0  0  0  0
  3 21  1  0  0  0  0
  3 57  1  0  0  0  0
  4 22  1  0  0  0  0
  4 58  1  0  0  0  0
  5 32  1  0  0  0  0
  5 63  1  0  0  0  0
  6 34  1  0  0  0  0
  6 65  1  0  0  0  0
  7 35  2  0  0  0  0
  8 36  2  0  0  0  0
  9 39  1  0  0  0  0
  9 66  1  0  0  0  0
 10 41  1  0  0  0  0
 10 71  1  0  0  0  0
 11 42  1  0  0  0  0
 11 72  1  0  0  0  0
 12 45  1  0  0  0  0
 12 73  1  0  0  0  0
 13 46  1  0  0  0  0
 13 74  1  0  0  0  0
 14 18  1  0  0  0  0
 14 20  1  0  0  0  0
 14 25  1  0  0  0  0
 15 26  1  0  0  0  0
 15 33  1  0  0  0  0
 15 52  1  0  0  0  0
 16 17  1  0  0  0  0
 16 35  1  0  0  0  0
 16 36  1  0  0  0  0
 17 43  1  0  0  0  0
 17 61  1  0  0  0  0
 18 19  1  0  0  0  0
 18 47  1  0  0  0  0
 19 21  1  0  0  0  0
 19 48  1  0  0  0  0
 20 23  1  0  0  0  0
 20 26  2  0  0  0  0
 21 22  1  0  0  0  0
 21 49  1  0  0  0  0
 22 24  1  0  0  0  0
 22 50  1  0  0  0  0
 23 27  1  0  0  0  0
 23 28  2  0  0  0  0
 24 32  1  0  0  0  0
 24 51  1  0  0  0  0
 25 27  2  0  0  0  0
 25 34  1  0  0  0  0
 26 29  1  0  0  0  0
 27 37  1  0  0  0  0
 28 30  1  0  0  0  0
 28 35  1  0  0  0  0
 29 30  2  0  0  0  0
 29 31  1  0  0  0  0
 30 36  1  0  0  0  0
 31 33  2  0  0  0  0
 31 40  1  0  0  0  0
 32 53  1  0  0  0  0
 32 54  1  0  0  0  0
 33 41  1  0  0  0  0
 34 38  2  0  0  0  0
 37 39  2  0  0  0  0
 37 55  1  0  0  0  0
 38 39  1  0  0  0  0
 38 59  1  0  0  0  0
 40 42  2  0  0  0  0
 40 60  1  0  0  0  0
 41 44  2  0  0  0  0
 42 44  1  0  0  0  0
 43 45  1  0  0  0  0
 43 46  1  0  0  0  0
 43 62  1  0  0  0  0
 44 64  1  0  0  0  0
 45 67  1  0  0  0  0
 45 68  1  0  0  0  0
 46 69  1  0  0  0  0
 46 70  1  0  0  0  0
M  END
> <PUBCHEM_COMPOUND_CID>
44340932

> <PUBCHEM_COMPOUND_CANONICALIZED>
1

> <PUBCHEM_CACTVS_COMPLEXITY>
1180

> <PUBCHEM_CACTVS_HBOND_ACCEPTOR>
14

> <PUBCHEM_CACTVS_HBOND_DONOR>
12

> <PUBCHEM_CACTVS_ROTATABLE_BOND>
6

> <PUBCHEM_CACTVS_SUBSKEYS>
AAADceB7vAAAAAAAAAAAAAAAAAAAAWLFgAA0YMEAAAAAAFgB/gAAHgAYCAAADDzhngYwxvPvlgCoAyVyVASCgCQlcCAS+aEvXNgLd/LSlZOecQhn1DXb2Qf9+feeyEADSAASECCQgAaQACQgQAAAAAAAAA==

> <PUBCHEM_IUPAC_OPENEYE_NAME>
5,7,19,21-tetrahydroxy-13-[[2-hydroxy-1-(hydroxymethyl)ethyl]amino]-3-[3,4,5-trihydroxy-6-(hydroxymethyl)tetrahydropyran-2-yl]-3,13,23-triazahexacyclo[14.7.0.02,10.04,9.011,15.017,22]tricosa-1,4(9),5,7,10,15,17(22),18,20-nonaene-12,14-dione

> <PUBCHEM_IUPAC_CAS_NAME>
13-(1,3-dihydroxypropan-2-ylamino)-5,7,19,21-tetrahydroxy-3-[3,4,5-trihydroxy-6-(hydroxymethyl)-2-oxanyl]-3,13,23-triazahexacyclo[14.7.0.02,10.04,9.011,15.017,22]tricosa-1,4(9),5,7,10,15,17(22),18,20-nonaene-12,14-dione

> <PUBCHEM_IUPAC_NAME_MARKUP>
13-(1,3-dihydroxypropan-2-ylamino)-5,7,19,21-tetrahydroxy-3-[3,4,5-trihydroxy-6-(hydroxymethyl)oxan-2-yl]-3,13,23-triazahexacyclo[14.7.0.0<SUP>2,10</SUP>.0<SUP>4,9</SUP>.0<SUP>11,15</SUP>.0<SUP>17,22</SUP>]tricosa-1,4(9),5,7,10,15,17(22),18,20-nonaene-12,14-dione

> <PUBCHEM_IUPAC_NAME>
13-(1,3-dihydroxypropan-2-ylamino)-5,7,19,21-tetrahydroxy-3-[3,4,5-trihydroxy-6-(hydroxymethyl)oxan-2-yl]-3,13,23-triazahexacyclo[14.7.0.02,10.04,9.011,15.017,22]tricosa-1,4(9),5,7,10,15,17(22),18,20-nonaene-12,14-dione

> <PUBCHEM_IUPAC_SYSTEMATIC_NAME>
13-[1,3-bis(oxidanyl)propan-2-ylamino]-3-[6-(hydroxymethyl)-3,4,5-tris(oxidanyl)oxan-2-yl]-5,7,19,21-tetrakis(oxidanyl)-3,13,23-triazahexacyclo[14.7.0.02,10.04,9.011,15.017,22]tricosa-1,4(9),5,7,10,15,17(22),18,20-nonaene-12,14-dione

> <PUBCHEM_IUPAC_TRADITIONAL_NAME>
5,7,19,21-tetrahydroxy-13-[(2-hydroxy-1-methylol-ethyl)amino]-3-(3,4,5-trihydroxy-6-methylol-tetrahydropyran-2-yl)-3,13,23-triazahexacyclo[14.7.0.02,10.04,9.011,15.017,22]tricosa-1,4(9),5,7,10,15,17(22),18,20-nonaene-12,14-quinone

> <PUBCHEM_IUPAC_INCHI>
InChI=1S/C29H28N4O13/c34-5-8(6-35)31-33-27(44)18-16-11-1-9(37)3-13(39)20(11)30-21(16)23-17(19(18)28(33)45)12-2-10(38)4-14(40)22(12)32(23)29-26(43)25(42)24(41)15(7-36)46-29/h1-4,8,15,24-26,29-31,34-43H,5-7H2

> <PUBCHEM_IUPAC_INCHIKEY>
JCRNITBPSQPGNF-UHFFFAOYSA-N

> <PUBCHEM_XLOGP3_AA>
-1.4

> <PUBCHEM_EXACT_MASS>
640.16528696

> <PUBCHEM_MOLECULAR_FORMULA>
C29H28N4O13

> <PUBCHEM_MOLECULAR_WEIGHT>
640.6

> <PUBCHEM_SMILES>
C1=C(C=C(C2=C1C3=C4C(=C5C6=C(C(=CC(=C6)O)O)N(C5=C3N2)C7C(C(C(C(O7)CO)O)O)O)C(=O)N(C4=O)NC(CO)CO)O)O

> <PUBCHEM_OPENEYE_CAN_SMILES>
C1=C(C=C(C2=C1C3=C4C(=C5C6=C(C(=CC(=C6)O)O)N(C5=C3N2)C7C(C(C(C(O7)CO)O)O)O)C(=O)N(C4=O)NC(CO)CO)O)O

> <PUBCHEM_OPENEYE_ISO_SMILES>
C1=C(C=C(C2=C1C3=C4C(=C5C6=C(C(=CC(=C6)O)O)N(C5=C3N2)C7C(C(C(C(O7)CO)O)O)O)C(=O)N(C4=O)NC(CO)CO)O)O

> <PUBCHEM_CACTVS_TPSA>
282

> <PUBCHEM_MONOISOTOPIC_WEIGHT>
640.16528696

> <PUBCHEM_TOTAL_CHARGE>
0

> <PUBCHEM_HEAVY_ATOM_COUNT>
46

> <PUBCHEM_ATOM_DEF_STEREO_COUNT>
0

> <PUBCHEM_ATOM_UDEF_STEREO_COUNT>
5

> <PUBCHEM_BOND_DEF_STEREO_COUNT>
0

> <PUBCHEM_BOND_UDEF_STEREO_COUNT>
0

> <PUBCHEM_ISOTOPIC_ATOM_COUNT>
0

> <PUBCHEM_COMPONENT_COUNT>
1

> <PUBCHEM_CACTVS_TAUTO_COUNT>
-1

> <PUBCHEM_COORDINATE_TYPE>
1
5
255

> <PUBCHEM_BONDANNOTATIONS>
18  14  3
14  20  8
14  25  8
15  26  8
15  33  8
19  2  3
20  23  8
20  26  8
23  27  8
23  28  8
24  32  3
25  27  8
25  34  8
26  29  8
27  37  8
28  30  8
29  30  8
29  31  8
21  3  3
31  33  8
31  40  8
33  41  8
34  38  8
37  39  8
38  39  8
22  4  3
40  42  8
41  44  8
42  44  8

$$$$
