45269554
  -OEChem-03202507012D

 36 38  0     0  0  0  0  0  0999 V2000
   14.1923    0.3254    0.0000 O   0  0  0  0  0  0  0  0  0  0  0  0
    7.1962    0.2979    0.0000 O   0  0  0  0  0  0  0  0  0  0  0  0
   13.3205    1.8221    0.0000 O   0  0  0  0  0  0  0  0  0  0  0  0
    8.0622   -1.2021    0.0000 N   0  0  0  0  0  0  0  0  0  0  0  0
    6.3301   -1.2021    0.0000 N   0  0  0  0  0  0  0  0  0  0  0  0
    5.4641    0.2979    0.0000 N   0  0  0  0  0  0  0  0  0  0  0  0
    3.7320   -0.7021    0.0000 N   0  0  0  0  0  0  0  0  0  0  0  0
    2.0000    1.2979    0.0000 N   0  0  0  0  0  0  0  0  0  0  0  0
   10.6603   -0.7021    0.0000 C   0  0  0  0  0  0  0  0  0  0  0  0
   10.6603    0.2979    0.0000 C   0  0  0  0  0  0  0  0  0  0  0  0
    8.9282   -0.7021    0.0000 C   0  0  0  0  0  0  0  0  0  0  0  0
    9.7942   -1.2021    0.0000 C   0  0  0  0  0  0  0  0  0  0  0  0
    9.7942    0.7979    0.0000 C   0  0  0  0  0  0  0  0  0  0  0  0
   11.5542    0.8326    0.0000 C   0  0  0  0  0  0  0  0  0  0  0  0
   11.5542   -1.2367    0.0000 C   0  0  0  0  0  0  0  0  0  0  0  0
    8.9282    0.2979    0.0000 C   0  0  0  0  0  0  0  0  0  0  0  0
   12.4603    0.3187    0.0000 C   0  0  0  0  0  0  0  0  0  0  0  0
   12.4603   -0.7229    0.0000 C   0  0  0  0  0  0  0  0  0  0  0  0
    7.1962   -0.7021    0.0000 C   0  0  0  0  0  0  0  0  0  0  0  0
   13.3244    0.8221    0.0000 C   0  0  0  0  0  0  0  0  0  0  0  0
    5.4641   -0.7021    0.0000 C   0  0  0  0  0  0  0  0  0  0  0  0
    4.5981   -1.2021    0.0000 C   0  0  0  0  0  0  0  0  0  0  0  0
    4.5981    0.7979    0.0000 C   0  0  0  0  0  0  0  0  0  0  0  0
    3.7320    0.2979    0.0000 C   0  0  0  0  0  0  0  0  0  0  0  0
    2.8660    0.7979    0.0000 C   0  0  0  0  0  0  0  0  0  0  0  0
    9.7942   -1.8221    0.0000 H   0  0  0  0  0  0  0  0  0  0  0  0
    9.7942    1.4179    0.0000 H   0  0  0  0  0  0  0  0  0  0  0  0
   11.5470    1.4526    0.0000 H   0  0  0  0  0  0  0  0  0  0  0  0
   11.5470   -1.8567    0.0000 H   0  0  0  0  0  0  0  0  0  0  0  0
    8.3913    0.6079    0.0000 H   0  0  0  0  0  0  0  0  0  0  0  0
   12.9960   -1.0350    0.0000 H   0  0  0  0  0  0  0  0  0  0  0  0
    8.0622   -1.8221    0.0000 H   0  0  0  0  0  0  0  0  0  0  0  0
    6.3301   -1.8221    0.0000 H   0  0  0  0  0  0  0  0  0  0  0  0
    4.5981   -1.8221    0.0000 H   0  0  0  0  0  0  0  0  0  0  0  0
    4.5981    1.4179    0.0000 H   0  0  0  0  0  0  0  0  0  0  0  0
   14.7280    0.6375    0.0000 H   0  0  0  0  0  0  0  0  0  0  0  0
  1 20  1  0  0  0  0
  1 36  1  0  0  0  0
  2 19  2  0  0  0  0
  3 20  2  0  0  0  0
  4 11  1  0  0  0  0
  4 19  1  0  0  0  0
  4 32  1  0  0  0  0
  5 19  1  0  0  0  0
  5 21  1  0  0  0  0
  5 33  1  0  0  0  0
  6 21  2  0  0  0  0
  6 23  1  0  0  0  0
  7 22  2  0  0  0  0
  7 24  1  0  0  0  0
  8 25  3  0  0  0  0
  9 10  2  0  0  0  0
  9 12  1  0  0  0  0
  9 15  1  0  0  0  0
 10 13  1  0  0  0  0
 10 14  1  0  0  0  0
 11 12  2  0  0  0  0
 11 16  1  0  0  0  0
 12 26  1  0  0  0  0
 13 16  2  0  0  0  0
 13 27  1  0  0  0  0
 14 17  2  0  0  0  0
 14 28  1  0  0  0  0
 15 18  2  0  0  0  0
 15 29  1  0  0  0  0
 16 30  1  0  0  0  0
 17 18  1  0  0  0  0
 17 20  1  0  0  0  0
 18 31  1  0  0  0  0
 21 22  1  0  0  0  0
 22 34  1  0  0  0  0
 23 24  2  0  0  0  0
 23 35  1  0  0  0  0
 24 25  1  0  0  0  0
M  END
> <PUBCHEM_COMPOUND_CID>
45269554

> <PUBCHEM_COMPOUND_CANONICALIZED>
1

> <PUBCHEM_CACTVS_COMPLEXITY>
560

> <PUBCHEM_CACTVS_HBOND_ACCEPTOR>
6

> <PUBCHEM_CACTVS_HBOND_DONOR>
3

> <PUBCHEM_CACTVS_ROTATABLE_BOND>
3

> <PUBCHEM_CACTVS_SUBSKEYS>
AAADccB7sAAAAAAAAAAAAAAAAAAAAAAAAAA8YIAAAAAAAADB1AAAHgAQCAAADAjBngQ9+NLIEgC4Bzb3fACigC01EiAJ2AE4fMiI5nLAlZGUcQhs1QPI2aeYyPCOyAACQAAQAACQAASAACAAAAAAAAAAAA==

> <PUBCHEM_IUPAC_OPENEYE_NAME>
6-[(5-cyanopyrazin-2-yl)carbamoylamino]naphthalene-2-carboxylic acid

> <PUBCHEM_IUPAC_CAS_NAME>
6-[[[(5-cyano-2-pyrazinyl)amino]-oxomethyl]amino]-2-naphthalenecarboxylic acid

> <PUBCHEM_IUPAC_NAME_MARKUP>
6-[(5-cyanopyrazin-2-yl)carbamoylamino]naphthalene-2-carboxylic acid

> <PUBCHEM_IUPAC_NAME>
6-[(5-cyanopyrazin-2-yl)carbamoylamino]naphthalene-2-carboxylic acid

> <PUBCHEM_IUPAC_SYSTEMATIC_NAME>
6-[(5-cyanopyrazin-2-yl)carbamoylamino]naphthalene-2-carboxylic acid

> <PUBCHEM_IUPAC_TRADITIONAL_NAME>
6-[(5-cyanopyrazin-2-yl)carbamoylamino]-2-naphthoic acid

> <PUBCHEM_IUPAC_INCHI>
InChI=1S/C17H11N5O3/c18-7-14-8-20-15(9-19-14)22-17(25)21-13-4-3-10-5-12(16(23)24)2-1-11(10)6-13/h1-6,8-9H,(H,23,24)(H2,20,21,22,25)

> <PUBCHEM_IUPAC_INCHIKEY>
CACMTVGXYAZZNY-UHFFFAOYSA-N

> <PUBCHEM_XLOGP3_AA>
1.5

> <PUBCHEM_EXACT_MASS>
333.08618923

> <PUBCHEM_MOLECULAR_FORMULA>
C17H11N5O3

> <PUBCHEM_MOLECULAR_WEIGHT>
333.30

> <PUBCHEM_SMILES>
C1=CC2=C(C=CC(=C2)NC(=O)NC3=NC=C(N=C3)C#N)C=C1C(=O)O

> <PUBCHEM_OPENEYE_CAN_SMILES>
C1=CC2=C(C=CC(=C2)NC(=O)NC3=NC=C(N=C3)C#N)C=C1C(=O)O

> <PUBCHEM_OPENEYE_ISO_SMILES>
C1=CC2=C(C=CC(=C2)NC(=O)NC3=NC=C(N=C3)C#N)C=C1C(=O)O

> <PUBCHEM_CACTVS_TPSA>
128

> <PUBCHEM_MONOISOTOPIC_WEIGHT>
333.08618923

> <PUBCHEM_TOTAL_CHARGE>
0

> <PUBCHEM_HEAVY_ATOM_COUNT>
25

> <PUBCHEM_ATOM_DEF_STEREO_COUNT>
0

> <PUBCHEM_ATOM_UDEF_STEREO_COUNT>
0

> <PUBCHEM_BOND_DEF_STEREO_COUNT>
0

> <PUBCHEM_BOND_UDEF_STEREO_COUNT>
0

> <PUBCHEM_ISOTOPIC_ATOM_COUNT>
0

> <PUBCHEM_COMPONENT_COUNT>
1

> <PUBCHEM_CACTVS_TAUTO_COUNT>
-1

> <PUBCHEM_COORDINATE_TYPE>
1
5
255

> <PUBCHEM_BONDANNOTATIONS>
10  13  8
10  14  8
11  12  8
11  16  8
13  16  8
14  17  8
15  18  8
17  18  8
21  22  8
23  24  8
6  21  8
6  23  8
7  22  8
7  24  8
9  10  8
9  12  8
9  15  8

$$$$
