18870913
  -OEChem-03202503242D

 26 27  0     0  0  0  0  0  0999 V2000
    3.5471    3.1307    0.0000 O   0  0  0  0  0  0  0  0  0  0  0  0
    2.3660    1.4081    0.0000 N   0  0  0  0  0  0  0  0  0  0  0  0
    2.0570    0.4571    0.0000 N   0  0  0  0  0  0  0  0  0  0  0  0
    4.9483    2.1126    0.0000 N   0  0  0  0  0  0  0  0  0  0  0  0
    2.8660   -0.1307    0.0000 C   0  0  0  0  0  0  0  0  0  0  0  0
    2.8660   -1.1307    0.0000 C   0  0  0  0  0  0  0  0  0  0  0  0
    3.3660    1.4081    0.0000 C   0  0  0  0  0  0  0  0  0  0  0  0
    3.6750    0.4571    0.0000 C   0  0  0  0  0  0  0  0  0  0  0  0
    3.7320   -1.6307    0.0000 C   0  0  0  0  0  0  0  0  0  0  0  0
    2.0000   -1.6307    0.0000 C   0  0  0  0  0  0  0  0  0  0  0  0
    3.9538    2.2172    0.0000 C   0  0  0  0  0  0  0  0  0  0  0  0
    3.7320   -2.6307    0.0000 C   0  0  0  0  0  0  0  0  0  0  0  0
    2.0000   -2.6307    0.0000 C   0  0  0  0  0  0  0  0  0  0  0  0
    2.8660   -3.1307    0.0000 C   0  0  0  0  0  0  0  0  0  0  0  0
    5.5361    2.9216    0.0000 C   0  0  0  0  0  0  0  0  0  0  0  0
    4.2647    0.2655    0.0000 H   0  0  0  0  0  0  0  0  0  0  0  0
    2.0016    1.9097    0.0000 H   0  0  0  0  0  0  0  0  0  0  0  0
    4.2690   -1.3207    0.0000 H   0  0  0  0  0  0  0  0  0  0  0  0
    1.4631   -1.3207    0.0000 H   0  0  0  0  0  0  0  0  0  0  0  0
    4.2690   -2.9407    0.0000 H   0  0  0  0  0  0  0  0  0  0  0  0
    1.4631   -2.9407    0.0000 H   0  0  0  0  0  0  0  0  0  0  0  0
    2.8660   -3.7507    0.0000 H   0  0  0  0  0  0  0  0  0  0  0  0
    5.2005    1.5462    0.0000 H   0  0  0  0  0  0  0  0  0  0  0  0
    6.0377    2.5572    0.0000 H   0  0  0  0  0  0  0  0  0  0  0  0
    5.9006    3.4232    0.0000 H   0  0  0  0  0  0  0  0  0  0  0  0
    5.0345    3.2861    0.0000 H   0  0  0  0  0  0  0  0  0  0  0  0
  1 11  2  0  0  0  0
  2  3  1  0  0  0  0
  2  7  1  0  0  0  0
  2 17  1  0  0  0  0
  3  5  2  0  0  0  0
  4 11  1  0  0  0  0
  4 15  1  0  0  0  0
  4 23  1  0  0  0  0
  5  6  1  0  0  0  0
  5  8  1  0  0  0  0
  6  9  2  0  0  0  0
  6 10  1  0  0  0  0
  7  8  2  0  0  0  0
  7 11  1  0  0  0  0
  8 16  1  0  0  0  0
  9 12  1  0  0  0  0
  9 18  1  0  0  0  0
 10 13  2  0  0  0  0
 10 19  1  0  0  0  0
 12 14  2  0  0  0  0
 12 20  1  0  0  0  0
 13 14  1  0  0  0  0
 13 21  1  0  0  0  0
 14 22  1  0  0  0  0
 15 24  1  0  0  0  0
 15 25  1  0  0  0  0
 15 26  1  0  0  0  0
M  END
> <PUBCHEM_COMPOUND_CID>
18870913

> <PUBCHEM_COMPOUND_CANONICALIZED>
1

> <PUBCHEM_CACTVS_COMPLEXITY>
226

> <PUBCHEM_CACTVS_HBOND_ACCEPTOR>
2

> <PUBCHEM_CACTVS_HBOND_DONOR>
2

> <PUBCHEM_CACTVS_ROTATABLE_BOND>
2

> <PUBCHEM_CACTVS_SUBSKEYS>
AAADccBzIAAAAAAAAAAAAAAAAAAAAWAAAAAwAAAAAAAAAAABwAAAHgAYAAAADAiBngQygJLjAACqAyVyUACSBAAmAgAYuaG4ZNgIYLKA1dGUpQhgmgAIyYcciICOAAAAAAAAAAAAAAAAAAAAAAAAAAAAAA==

> <PUBCHEM_IUPAC_OPENEYE_NAME>
N-methyl-3-phenyl-1H-pyrazole-5-carboxamide

> <PUBCHEM_IUPAC_CAS_NAME>
N-methyl-3-phenyl-1H-pyrazole-5-carboxamide

> <PUBCHEM_IUPAC_NAME_MARKUP>
<I>N</I>-methyl-3-phenyl-1<I>H</I>-pyrazole-5-carboxamide

> <PUBCHEM_IUPAC_NAME>
N-methyl-3-phenyl-1H-pyrazole-5-carboxamide

> <PUBCHEM_IUPAC_SYSTEMATIC_NAME>
N-methyl-3-phenyl-1H-pyrazole-5-carboxamide

> <PUBCHEM_IUPAC_TRADITIONAL_NAME>
N-methyl-3-phenyl-1H-pyrazole-5-carboxamide

> <PUBCHEM_IUPAC_INCHI>
InChI=1S/C11H11N3O/c1-12-11(15)10-7-9(13-14-10)8-5-3-2-4-6-8/h2-7H,1H3,(H,12,15)(H,13,14)

> <PUBCHEM_IUPAC_INCHIKEY>
JNPCKQOIIRKYRO-UHFFFAOYSA-N

> <PUBCHEM_XLOGP3_AA>
1.5

> <PUBCHEM_EXACT_MASS>
201.090211983

> <PUBCHEM_MOLECULAR_FORMULA>
C11H11N3O

> <PUBCHEM_MOLECULAR_WEIGHT>
201.22

> <PUBCHEM_SMILES>
CNC(=O)C1=CC(=NN1)C2=CC=CC=C2

> <PUBCHEM_OPENEYE_CAN_SMILES>
CNC(=O)C1=CC(=NN1)C2=CC=CC=C2

> <PUBCHEM_OPENEYE_ISO_SMILES>
CNC(=O)C1=CC(=NN1)C2=CC=CC=C2

> <PUBCHEM_CACTVS_TPSA>
57.8

> <PUBCHEM_MONOISOTOPIC_WEIGHT>
201.090211983

> <PUBCHEM_TOTAL_CHARGE>
0

> <PUBCHEM_HEAVY_ATOM_COUNT>
15

> <PUBCHEM_ATOM_DEF_STEREO_COUNT>
0

> <PUBCHEM_ATOM_UDEF_STEREO_COUNT>
0

> <PUBCHEM_BOND_DEF_STEREO_COUNT>
0

> <PUBCHEM_BOND_UDEF_STEREO_COUNT>
0

> <PUBCHEM_ISOTOPIC_ATOM_COUNT>
0

> <PUBCHEM_COMPONENT_COUNT>
1

> <PUBCHEM_CACTVS_TAUTO_COUNT>
-1

> <PUBCHEM_COORDINATE_TYPE>
1
5
255

> <PUBCHEM_BONDANNOTATIONS>
10  13  8
12  14  8
13  14  8
2  3  8
2  7  8
3  5  8
5  8  8
6  10  8
6  9  8
7  8  8
9  12  8

$$$$
