54760383
  -OEChem-03202504492D

 67 72  0     0  0  0  0  0  0999 V2000
   11.6065    0.4171    0.0000 N   0  0  0  0  0  0  0  0  0  0  0  0
   11.6065   -1.1923    0.0000 N   0  0  0  0  0  0  0  0  0  0  0  0
    4.5981   -1.3876    0.0000 N   0  0  0  0  0  0  0  0  0  0  0  0
   13.1901   -0.3876    0.0000 N   0  0  0  0  0  0  0  0  0  0  0  0
    2.8660   -2.3876    0.0000 N   0  0  0  0  0  0  0  0  0  0  0  0
    9.7942    0.6124    0.0000 N   0  0  0  0  0  0  0  0  0  0  0  0
    8.9282   -0.8876    0.0000 N   0  0  0  0  0  0  0  0  0  0  0  0
    8.0622    0.6124    0.0000 N   0  0  0  0  0  0  0  0  0  0  0  0
   11.9171    1.3676    0.0000 C   0  0  0  0  0  0  0  0  0  0  0  0
   12.8687    1.6750    0.0000 C   0  0  0  0  0  0  0  0  0  0  0  0
   11.3308    2.1777    0.0000 C   0  0  0  0  0  0  0  0  0  0  0  0
   12.8705    2.6750    0.0000 C   0  0  0  0  0  0  0  0  0  0  0  0
   11.9199    2.9857    0.0000 C   0  0  0  0  0  0  0  0  0  0  0  0
   10.6603    0.1124    0.0000 C   0  0  0  0  0  0  0  0  0  0  0  0
   12.1901   -0.3876    0.0000 C   0  0  0  0  0  0  0  0  0  0  0  0
   10.6603   -0.8876    0.0000 C   0  0  0  0  0  0  0  0  0  0  0  0
    4.5981   -2.3876    0.0000 C   0  0  0  0  0  0  0  0  0  0  0  0
    3.7320   -0.8876    0.0000 C   0  0  0  0  0  0  0  0  0  0  0  0
    3.7320   -2.8876    0.0000 C   0  0  0  0  0  0  0  0  0  0  0  0
    2.8660   -1.3876    0.0000 C   0  0  0  0  0  0  0  0  0  0  0  0
    9.7942   -1.3876    0.0000 C   0  0  0  0  0  0  0  0  0  0  0  0
    5.4641   -0.8876    0.0000 C   0  0  0  0  0  0  0  0  0  0  0  0
    8.9282    0.1124    0.0000 C   0  0  0  0  0  0  0  0  0  0  0  0
    2.0000   -2.8876    0.0000 C   0  0  0  0  0  0  0  0  0  0  0  0
   13.6901   -1.2536    0.0000 C   0  0  0  0  0  0  0  0  0  0  0  0
    5.4641    0.1124    0.0000 C   0  0  0  0  0  0  0  0  0  0  0  0
    6.3301   -1.3876    0.0000 C   0  0  0  0  0  0  0  0  0  0  0  0
    7.1962    0.1124    0.0000 C   0  0  0  0  0  0  0  0  0  0  0  0
    6.3301    0.6124    0.0000 C   0  0  0  0  0  0  0  0  0  0  0  0
    7.1962   -0.8876    0.0000 C   0  0  0  0  0  0  0  0  0  0  0  0
   13.1901   -2.1196    0.0000 C   0  0  0  0  0  0  0  0  0  0  0  0
   14.6901   -1.2536    0.0000 C   0  0  0  0  0  0  0  0  0  0  0  0
   13.6901   -2.9857    0.0000 C   0  0  0  0  0  0  0  0  0  0  0  0
   15.1901   -2.1196    0.0000 C   0  0  0  0  0  0  0  0  0  0  0  0
   14.6901   -2.9857    0.0000 C   0  0  0  0  0  0  0  0  0  0  0  0
   12.3548    0.9285    0.0000 H   0  0  0  0  0  0  0  0  0  0  0  0
   12.9966    1.0684    0.0000 H   0  0  0  0  0  0  0  0  0  0  0  0
   13.4854    1.7388    0.0000 H   0  0  0  0  0  0  0  0  0  0  0  0
   10.8707    2.5933    0.0000 H   0  0  0  0  0  0  0  0  0  0  0  0
   10.8693    1.7636    0.0000 H   0  0  0  0  0  0  0  0  0  0  0  0
   13.4869    2.6091    0.0000 H   0  0  0  0  0  0  0  0  0  0  0  0
   13.0004    3.2812    0.0000 H   0  0  0  0  0  0  0  0  0  0  0  0
   12.1731    3.5516    0.0000 H   0  0  0  0  0  0  0  0  0  0  0  0
   11.3835    3.2966    0.0000 H   0  0  0  0  0  0  0  0  0  0  0  0
    4.8101   -2.9702    0.0000 H   0  0  0  0  0  0  0  0  0  0  0  0
    5.2087   -2.2799    0.0000 H   0  0  0  0  0  0  0  0  0  0  0  0
    4.1306   -0.4127    0.0000 H   0  0  0  0  0  0  0  0  0  0  0  0
    3.3335   -0.4127    0.0000 H   0  0  0  0  0  0  0  0  0  0  0  0
    3.3335   -3.3626    0.0000 H   0  0  0  0  0  0  0  0  0  0  0  0
    4.1306   -3.3626    0.0000 H   0  0  0  0  0  0  0  0  0  0  0  0
    2.6540   -0.8050    0.0000 H   0  0  0  0  0  0  0  0  0  0  0  0
    2.2554   -1.4953    0.0000 H   0  0  0  0  0  0  0  0  0  0  0  0
   13.5001    0.1493    0.0000 H   0  0  0  0  0  0  0  0  0  0  0  0
    9.7942   -2.0076    0.0000 H   0  0  0  0  0  0  0  0  0  0  0  0
    1.6900   -2.3507    0.0000 H   0  0  0  0  0  0  0  0  0  0  0  0
    1.4631   -3.1976    0.0000 H   0  0  0  0  0  0  0  0  0  0  0  0
    2.3100   -3.4245    0.0000 H   0  0  0  0  0  0  0  0  0  0  0  0
    4.9272    0.4224    0.0000 H   0  0  0  0  0  0  0  0  0  0  0  0
    6.3301   -2.0076    0.0000 H   0  0  0  0  0  0  0  0  0  0  0  0
    8.0622    1.2324    0.0000 H   0  0  0  0  0  0  0  0  0  0  0  0
    6.3301    1.2324    0.0000 H   0  0  0  0  0  0  0  0  0  0  0  0
    7.7331   -1.1976    0.0000 H   0  0  0  0  0  0  0  0  0  0  0  0
   12.5701   -2.1196    0.0000 H   0  0  0  0  0  0  0  0  0  0  0  0
   15.0001   -0.7167    0.0000 H   0  0  0  0  0  0  0  0  0  0  0  0
   13.3801   -3.5226    0.0000 H   0  0  0  0  0  0  0  0  0  0  0  0
   15.8101   -2.1196    0.0000 H   0  0  0  0  0  0  0  0  0  0  0  0
   15.0001   -3.5226    0.0000 H   0  0  0  0  0  0  0  0  0  0  0  0
  1  9  1  0  0  0  0
  1 14  1  0  0  0  0
  1 15  1  0  0  0  0
  2 15  2  0  0  0  0
  2 16  1  0  0  0  0
  3 17  1  0  0  0  0
  3 18  1  0  0  0  0
  3 22  1  0  0  0  0
  4 15  1  0  0  0  0
  4 25  1  0  0  0  0
  4 53  1  0  0  0  0
  5 19  1  0  0  0  0
  5 20  1  0  0  0  0
  5 24  1  0  0  0  0
  6 14  2  0  0  0  0
  6 23  1  0  0  0  0
  7 21  1  0  0  0  0
  7 23  2  0  0  0  0
  8 23  1  0  0  0  0
  8 28  1  0  0  0  0
  8 60  1  0  0  0  0
  9 10  1  0  0  0  0
  9 11  1  0  0  0  0
  9 36  1  0  0  0  0
 10 12  1  0  0  0  0
 10 37  1  0  0  0  0
 10 38  1  0  0  0  0
 11 13  1  0  0  0  0
 11 39  1  0  0  0  0
 11 40  1  0  0  0  0
 12 13  1  0  0  0  0
 12 41  1  0  0  0  0
 12 42  1  0  0  0  0
 13 43  1  0  0  0  0
 13 44  1  0  0  0  0
 14 16  1  0  0  0  0
 16 21  2  0  0  0  0
 17 19  1  0  0  0  0
 17 45  1  0  0  0  0
 17 46  1  0  0  0  0
 18 20  1  0  0  0  0
 18 47  1  0  0  0  0
 18 48  1  0  0  0  0
 19 49  1  0  0  0  0
 19 50  1  0  0  0  0
 20 51  1  0  0  0  0
 20 52  1  0  0  0  0
 21 54  1  0  0  0  0
 22 26  2  0  0  0  0
 22 27  1  0  0  0  0
 24 55  1  0  0  0  0
 24 56  1  0  0  0  0
 24 57  1  0  0  0  0
 25 31  2  0  0  0  0
 25 32  1  0  0  0  0
 26 29  1  0  0  0  0
 26 58  1  0  0  0  0
 27 30  2  0  0  0  0
 27 59  1  0  0  0  0
 28 29  2  0  0  0  0
 28 30  1  0  0  0  0
 29 61  1  0  0  0  0
 30 62  1  0  0  0  0
 31 33  1  0  0  0  0
 31 63  1  0  0  0  0
 32 34  2  0  0  0  0
 32 64  1  0  0  0  0
 33 35  2  0  0  0  0
 33 65  1  0  0  0  0
 34 35  1  0  0  0  0
 34 66  1  0  0  0  0
 35 67  1  0  0  0  0
M  END
> <PUBCHEM_COMPOUND_CID>
54760383

> <PUBCHEM_COMPOUND_CANONICALIZED>
1

> <PUBCHEM_CACTVS_COMPLEXITY>
650

> <PUBCHEM_CACTVS_HBOND_ACCEPTOR>
7

> <PUBCHEM_CACTVS_HBOND_DONOR>
2

> <PUBCHEM_CACTVS_ROTATABLE_BOND>
6

> <PUBCHEM_CACTVS_SUBSKEYS>
AAADcfB7wAAAAAAAAAAAAAAAAAAAAeIAAAA8eIEAAAAAAFgB/AAAHAAQAAAACCjBFwQ/8L/MEACgATZnZACCgC0xEqAJ2CA4dJiIaKLA2dGUJAhokALIyCcQAAAAAACAAAAAAAAAAQAAAAAAAAAAAAAAAA==

> <PUBCHEM_IUPAC_OPENEYE_NAME>
9-cyclopentyl-N2-[4-(4-methylpiperazin-1-yl)phenyl]-N8-phenyl-purine-2,8-diamine

> <PUBCHEM_IUPAC_CAS_NAME>
9-cyclopentyl-N2-[4-(4-methyl-1-piperazinyl)phenyl]-N8-phenylpurine-2,8-diamine

> <PUBCHEM_IUPAC_NAME_MARKUP>
9-cyclopentyl-2-<I>N</I>-[4-(4-methylpiperazin-1-yl)phenyl]-8-<I>N</I>-phenylpurine-2,8-diamine

> <PUBCHEM_IUPAC_NAME>
9-cyclopentyl-2-N-[4-(4-methylpiperazin-1-yl)phenyl]-8-N-phenylpurine-2,8-diamine

> <PUBCHEM_IUPAC_SYSTEMATIC_NAME>
9-cyclopentyl-N2-[4-(4-methylpiperazin-1-yl)phenyl]-N8-phenyl-purine-2,8-diamine

> <PUBCHEM_IUPAC_TRADITIONAL_NAME>
(8-anilino-9-cyclopentyl-purin-2-yl)-[4-(4-methylpiperazino)phenyl]amine

> <PUBCHEM_IUPAC_INCHI>
InChI=1S/C27H32N8/c1-33-15-17-34(18-16-33)22-13-11-21(12-14-22)29-26-28-19-24-25(32-26)35(23-9-5-6-10-23)27(31-24)30-20-7-3-2-4-8-20/h2-4,7-8,11-14,19,23H,5-6,9-10,15-18H2,1H3,(H,30,31)(H,28,29,32)

> <PUBCHEM_IUPAC_INCHIKEY>
QPOURHROVVCOHC-UHFFFAOYSA-N

> <PUBCHEM_XLOGP3_AA>
4.9

> <PUBCHEM_EXACT_MASS>
468.27499305

> <PUBCHEM_MOLECULAR_FORMULA>
C27H32N8

> <PUBCHEM_MOLECULAR_WEIGHT>
468.6

> <PUBCHEM_SMILES>
CN1CCN(CC1)C2=CC=C(C=C2)NC3=NC=C4C(=N3)N(C(=N4)NC5=CC=CC=C5)C6CCCC6

> <PUBCHEM_OPENEYE_CAN_SMILES>
CN1CCN(CC1)C2=CC=C(C=C2)NC3=NC=C4C(=N3)N(C(=N4)NC5=CC=CC=C5)C6CCCC6

> <PUBCHEM_OPENEYE_ISO_SMILES>
CN1CCN(CC1)C2=CC=C(C=C2)NC3=NC=C4C(=N3)N(C(=N4)NC5=CC=CC=C5)C6CCCC6

> <PUBCHEM_CACTVS_TPSA>
74.1

> <PUBCHEM_MONOISOTOPIC_WEIGHT>
468.27499305

> <PUBCHEM_TOTAL_CHARGE>
0

> <PUBCHEM_HEAVY_ATOM_COUNT>
35

> <PUBCHEM_ATOM_DEF_STEREO_COUNT>
0

> <PUBCHEM_ATOM_UDEF_STEREO_COUNT>
0

> <PUBCHEM_BOND_DEF_STEREO_COUNT>
0

> <PUBCHEM_BOND_UDEF_STEREO_COUNT>
0

> <PUBCHEM_ISOTOPIC_ATOM_COUNT>
0

> <PUBCHEM_COMPONENT_COUNT>
1

> <PUBCHEM_CACTVS_TAUTO_COUNT>
-1

> <PUBCHEM_COORDINATE_TYPE>
1
5
255

> <PUBCHEM_BONDANNOTATIONS>
1  14  8
1  15  8
14  16  8
16  21  8
2  15  8
2  16  8
22  26  8
22  27  8
25  31  8
25  32  8
26  29  8
27  30  8
28  29  8
28  30  8
31  33  8
32  34  8
33  35  8
34  35  8
6  14  8
6  23  8
7  21  8
7  23  8

$$$$
