24969301
  -OEChem-03202507022D

 50 53  0     0  0  0  0  0  0999 V2000
    4.0000   -5.0591    0.0000 F   0  0  0  0  0  0  0  0  0  0  0  0
    3.0000   -6.0591    0.0000 F   0  0  0  0  0  0  0  0  0  0  0  0
    2.0000   -5.0591    0.0000 F   0  0  0  0  0  0  0  0  0  0  0  0
    9.5655    4.9024    0.0000 O   0  0  0  0  0  0  0  0  0  0  0  0
    5.5981   -2.5591    0.0000 O   0  0  0  0  0  0  0  0  0  0  0  0
    7.9192    5.4404    0.0000 O   0  0  0  0  0  0  0  0  0  0  0  0
    7.3301    2.4409    0.0000 N   0  0  0  0  0  0  0  0  0  0  0  0
    8.2764    2.1362    0.0000 N   0  0  0  0  0  0  0  0  0  0  0  0
    6.4641    3.9409    0.0000 N   0  0  0  0  0  0  0  0  0  0  0  0
    4.7320   -1.0591    0.0000 N   0  0  0  0  0  0  0  0  0  0  0  0
    6.4641    1.9409    0.0000 C   0  0  0  0  0  0  0  0  0  0  0  0
    6.4641    0.9409    0.0000 C   0  0  0  0  0  0  0  0  0  0  0  0
    7.3301    3.4409    0.0000 C   0  0  0  0  0  0  0  0  0  0  0  0
    8.2764    3.7456    0.0000 C   0  0  0  0  0  0  0  0  0  0  0  0
    5.5981    0.4409    0.0000 C   0  0  0  0  0  0  0  0  0  0  0  0
    5.5981   -0.5591    0.0000 C   0  0  0  0  0  0  0  0  0  0  0  0
    5.5981    2.4409    0.0000 C   0  0  0  0  0  0  0  0  0  0  0  0
    7.3301    0.4409    0.0000 C   0  0  0  0  0  0  0  0  0  0  0  0
    8.8600    2.9409    0.0000 C   0  0  0  0  0  0  0  0  0  0  0  0
    6.4641   -1.0591    0.0000 C   0  0  0  0  0  0  0  0  0  0  0  0
    5.5981    3.4409    0.0000 C   0  0  0  0  0  0  0  0  0  0  0  0
    7.3301   -0.5591    0.0000 C   0  0  0  0  0  0  0  0  0  0  0  0
    3.8660   -2.5591    0.0000 C   0  0  0  0  0  0  0  0  0  0  0  0
    8.5870    4.6962    0.0000 C   0  0  0  0  0  0  0  0  0  0  0  0
    4.7320   -2.0591    0.0000 C   0  0  0  0  0  0  0  0  0  0  0  0
    3.8660   -3.5591    0.0000 C   0  0  0  0  0  0  0  0  0  0  0  0
    3.0000   -4.0591    0.0000 C   0  0  0  0  0  0  0  0  0  0  0  0
    3.0000   -2.0591    0.0000 C   0  0  0  0  0  0  0  0  0  0  0  0
    2.1340   -3.5591    0.0000 C   0  0  0  0  0  0  0  0  0  0  0  0
    2.1340   -2.5591    0.0000 C   0  0  0  0  0  0  0  0  0  0  0  0
    3.0000   -5.0591    0.0000 C   0  0  0  0  0  0  0  0  0  0  0  0
    9.8762    5.8529    0.0000 C   0  0  0  0  0  0  0  0  0  0  0  0
   10.8547    6.0591    0.0000 C   0  0  0  0  0  0  0  0  0  0  0  0
    5.0611    0.7509    0.0000 H   0  0  0  0  0  0  0  0  0  0  0  0
    5.0611    2.1309    0.0000 H   0  0  0  0  0  0  0  0  0  0  0  0
    7.8671    0.7509    0.0000 H   0  0  0  0  0  0  0  0  0  0  0  0
    9.4800    2.9409    0.0000 H   0  0  0  0  0  0  0  0  0  0  0  0
    6.4641   -1.6791    0.0000 H   0  0  0  0  0  0  0  0  0  0  0  0
    5.0611    3.7509    0.0000 H   0  0  0  0  0  0  0  0  0  0  0  0
    7.8671   -0.8691    0.0000 H   0  0  0  0  0  0  0  0  0  0  0  0
    4.1951   -0.7491    0.0000 H   0  0  0  0  0  0  0  0  0  0  0  0
    4.4030   -3.8691    0.0000 H   0  0  0  0  0  0  0  0  0  0  0  0
    3.0000   -1.4391    0.0000 H   0  0  0  0  0  0  0  0  0  0  0  0
    1.5970   -3.8691    0.0000 H   0  0  0  0  0  0  0  0  0  0  0  0
    1.5970   -2.2491    0.0000 H   0  0  0  0  0  0  0  0  0  0  0  0
    9.8556    6.4726    0.0000 H   0  0  0  0  0  0  0  0  0  0  0  0
    9.2624    5.9402    0.0000 H   0  0  0  0  0  0  0  0  0  0  0  0
   10.9825    5.4524    0.0000 H   0  0  0  0  0  0  0  0  0  0  0  0
   11.4614    6.1870    0.0000 H   0  0  0  0  0  0  0  0  0  0  0  0
   10.7268    6.6658    0.0000 H   0  0  0  0  0  0  0  0  0  0  0  0
  1 31  1  0  0  0  0
  2 31  1  0  0  0  0
  3 31  1  0  0  0  0
  4 24  1  0  0  0  0
  4 32  1  0  0  0  0
  5 25  2  0  0  0  0
  6 24  2  0  0  0  0
  7  8  1  0  0  0  0
  7 11  1  0  0  0  0
  7 13  1  0  0  0  0
  8 19  2  0  0  0  0
  9 13  1  0  0  0  0
  9 21  2  0  0  0  0
 10 16  1  0  0  0  0
 10 25  1  0  0  0  0
 10 41  1  0  0  0  0
 11 12  1  0  0  0  0
 11 17  2  0  0  0  0
 12 15  2  0  0  0  0
 12 18  1  0  0  0  0
 13 14  2  0  0  0  0
 14 19  1  0  0  0  0
 14 24  1  0  0  0  0
 15 16  1  0  0  0  0
 15 34  1  0  0  0  0
 16 20  2  0  0  0  0
 17 21  1  0  0  0  0
 17 35  1  0  0  0  0
 18 22  2  0  0  0  0
 18 36  1  0  0  0  0
 19 37  1  0  0  0  0
 20 22  1  0  0  0  0
 20 38  1  0  0  0  0
 21 39  1  0  0  0  0
 22 40  1  0  0  0  0
 23 25  1  0  0  0  0
 23 26  2  0  0  0  0
 23 28  1  0  0  0  0
 26 27  1  0  0  0  0
 26 42  1  0  0  0  0
 27 29  2  0  0  0  0
 27 31  1  0  0  0  0
 28 30  2  0  0  0  0
 28 43  1  0  0  0  0
 29 30  1  0  0  0  0
 29 44  1  0  0  0  0
 30 45  1  0  0  0  0
 32 33  1  0  0  0  0
 32 46  1  0  0  0  0
 32 47  1  0  0  0  0
 33 48  1  0  0  0  0
 33 49  1  0  0  0  0
 33 50  1  0  0  0  0
M  END
> <PUBCHEM_COMPOUND_CID>
24969301

> <PUBCHEM_COMPOUND_CANONICALIZED>
1

> <PUBCHEM_CACTVS_COMPLEXITY>
707

> <PUBCHEM_CACTVS_HBOND_ACCEPTOR>
8

> <PUBCHEM_CACTVS_HBOND_DONOR>
1

> <PUBCHEM_CACTVS_ROTATABLE_BOND>
6

> <PUBCHEM_CACTVS_SUBSKEYS>
AAADceB7sYAAAAAAAAAAAAAAAAAAAWAAAAA8YIAAAAAAAFgB9AAAHwAYAAAADAjhnxY/+J7IFACqAzf3fACShCs1gqAd2CE4bNiILPrA/dmGpYhqnALI6ecYiMCOAAACQAAAAAAAAASAAAAAAAAAAAAAAA==

> <PUBCHEM_IUPAC_OPENEYE_NAME>
ethyl 7-[3-[[3-(trifluoromethyl)benzoyl]amino]phenyl]pyrazolo[1,5-a]pyrimidine-3-carboxylate

> <PUBCHEM_IUPAC_CAS_NAME>
7-[3-[[oxo-[3-(trifluoromethyl)phenyl]methyl]amino]phenyl]-3-pyrazolo[1,5-a]pyrimidinecarboxylic acid ethyl ester

> <PUBCHEM_IUPAC_NAME_MARKUP>
ethyl 7-[3-[[3-(trifluoromethyl)benzoyl]amino]phenyl]pyrazolo[1,5-a]pyrimidine-3-carboxylate

> <PUBCHEM_IUPAC_NAME>
ethyl 7-[3-[[3-(trifluoromethyl)benzoyl]amino]phenyl]pyrazolo[1,5-a]pyrimidine-3-carboxylate

> <PUBCHEM_IUPAC_SYSTEMATIC_NAME>
ethyl 7-[3-[[3-(trifluoromethyl)phenyl]carbonylamino]phenyl]pyrazolo[1,5-a]pyrimidine-3-carboxylate

> <PUBCHEM_IUPAC_TRADITIONAL_NAME>
7-[3-[[3-(trifluoromethyl)benzoyl]amino]phenyl]pyrazolo[1,5-a]pyrimidine-3-carboxylic acid ethyl ester

> <PUBCHEM_IUPAC_INCHI>
InChI=1S/C23H17F3N4O3/c1-2-33-22(32)18-13-28-30-19(9-10-27-20(18)30)14-5-4-8-17(12-14)29-21(31)15-6-3-7-16(11-15)23(24,25)26/h3-13H,2H2,1H3,(H,29,31)

> <PUBCHEM_IUPAC_INCHIKEY>
YCAVTOUTYRMOGQ-UHFFFAOYSA-N

> <PUBCHEM_XLOGP3_AA>
3.9

> <PUBCHEM_EXACT_MASS>
454.12527490

> <PUBCHEM_MOLECULAR_FORMULA>
C23H17F3N4O3

> <PUBCHEM_MOLECULAR_WEIGHT>
454.4

> <PUBCHEM_SMILES>
CCOC(=O)C1=C2N=CC=C(N2N=C1)C3=CC(=CC=C3)NC(=O)C4=CC(=CC=C4)C(F)(F)F

> <PUBCHEM_OPENEYE_CAN_SMILES>
CCOC(=O)C1=C2N=CC=C(N2N=C1)C3=CC(=CC=C3)NC(=O)C4=CC(=CC=C4)C(F)(F)F

> <PUBCHEM_OPENEYE_ISO_SMILES>
CCOC(=O)C1=C2N=CC=C(N2N=C1)C3=CC(=CC=C3)NC(=O)C4=CC(=CC=C4)C(F)(F)F

> <PUBCHEM_CACTVS_TPSA>
85.6

> <PUBCHEM_MONOISOTOPIC_WEIGHT>
454.12527490

> <PUBCHEM_TOTAL_CHARGE>
0

> <PUBCHEM_HEAVY_ATOM_COUNT>
33

> <PUBCHEM_ATOM_DEF_STEREO_COUNT>
0

> <PUBCHEM_ATOM_UDEF_STEREO_COUNT>
0

> <PUBCHEM_BOND_DEF_STEREO_COUNT>
0

> <PUBCHEM_BOND_UDEF_STEREO_COUNT>
0

> <PUBCHEM_ISOTOPIC_ATOM_COUNT>
0

> <PUBCHEM_COMPONENT_COUNT>
1

> <PUBCHEM_CACTVS_TAUTO_COUNT>
-1

> <PUBCHEM_COORDINATE_TYPE>
1
5
255

> <PUBCHEM_BONDANNOTATIONS>
11  17  8
12  15  8
12  18  8
13  14  8
14  19  8
15  16  8
16  20  8
17  21  8
18  22  8
20  22  8
23  26  8
23  28  8
26  27  8
27  29  8
28  30  8
29  30  8
7  11  8
7  13  8
7  8  8
8  19  8
9  13  8
9  21  8

$$$$
