49830289
  -OEChem-03202503472D

 36 38  0     0  0  0  0  0  0999 V2000
    2.5369    3.0420    0.0000 O   0  0  0  0  0  0  0  0  0  0  0  0
    4.2690    0.0420    0.0000 N   0  0  0  0  0  0  0  0  0  0  0  0
    6.0812   -2.7627    0.0000 N   0  0  0  0  0  0  0  0  0  0  0  0
    3.4030   -1.4580    0.0000 N   0  0  0  0  0  0  0  0  0  0  0  0
    4.2690   -2.9580    0.0000 N   0  0  0  0  0  0  0  0  0  0  0  0
    5.1350   -1.4580    0.0000 C   0  0  0  0  0  0  0  0  0  0  0  0
    6.0812   -1.1532    0.0000 C   0  0  0  0  0  0  0  0  0  0  0  0
    4.2690   -0.9580    0.0000 C   0  0  0  0  0  0  0  0  0  0  0  0
    5.1350   -2.4580    0.0000 C   0  0  0  0  0  0  0  0  0  0  0  0
    3.4030    0.5420    0.0000 C   0  0  0  0  0  0  0  0  0  0  0  0
    6.3919   -0.2027    0.0000 C   0  0  0  0  0  0  0  0  0  0  0  0
    6.6648   -1.9580    0.0000 C   0  0  0  0  0  0  0  0  0  0  0  0
    3.4030    1.5420    0.0000 C   0  0  0  0  0  0  0  0  0  0  0  0
    2.5369    2.0420    0.0000 C   0  0  0  0  0  0  0  0  0  0  0  0
    7.3704    0.0035    0.0000 C   0  0  0  0  0  0  0  0  0  0  0  0
    5.7240    0.5416    0.0000 C   0  0  0  0  0  0  0  0  0  0  0  0
    3.4030   -2.4580    0.0000 C   0  0  0  0  0  0  0  0  0  0  0  0
    7.6811    0.9540    0.0000 C   0  0  0  0  0  0  0  0  0  0  0  0
    6.0347    1.4921    0.0000 C   0  0  0  0  0  0  0  0  0  0  0  0
    7.0132    1.6983    0.0000 C   0  0  0  0  0  0  0  0  0  0  0  0
    2.7924    0.6497    0.0000 H   0  0  0  0  0  0  0  0  0  0  0  0
    3.1909   -0.0406    0.0000 H   0  0  0  0  0  0  0  0  0  0  0  0
    7.2848   -1.9580    0.0000 H   0  0  0  0  0  0  0  0  0  0  0  0
    4.8059    0.3520    0.0000 H   0  0  0  0  0  0  0  0  0  0  0  0
    4.0135    1.4344    0.0000 H   0  0  0  0  0  0  0  0  0  0  0  0
    3.6150    2.1246    0.0000 H   0  0  0  0  0  0  0  0  0  0  0  0
    6.2738   -3.3520    0.0000 H   0  0  0  0  0  0  0  0  0  0  0  0
    1.9264    2.1497    0.0000 H   0  0  0  0  0  0  0  0  0  0  0  0
    2.3249    1.4594    0.0000 H   0  0  0  0  0  0  0  0  0  0  0  0
    7.7845   -0.4580    0.0000 H   0  0  0  0  0  0  0  0  0  0  0  0
    5.1174    0.4137    0.0000 H   0  0  0  0  0  0  0  0  0  0  0  0
    2.8660   -2.7680    0.0000 H   0  0  0  0  0  0  0  0  0  0  0  0
    8.2877    1.0819    0.0000 H   0  0  0  0  0  0  0  0  0  0  0  0
    5.6207    1.9536    0.0000 H   0  0  0  0  0  0  0  0  0  0  0  0
    7.2058    2.2876    0.0000 H   0  0  0  0  0  0  0  0  0  0  0  0
    2.0000    3.3520    0.0000 H   0  0  0  0  0  0  0  0  0  0  0  0
  1 14  1  0  0  0  0
  1 36  1  0  0  0  0
  2  8  1  0  0  0  0
  2 10  1  0  0  0  0
  2 24  1  0  0  0  0
  3  9  1  0  0  0  0
  3 12  1  0  0  0  0
  3 27  1  0  0  0  0
  4  8  2  0  0  0  0
  4 17  1  0  0  0  0
  5  9  1  0  0  0  0
  5 17  2  0  0  0  0
  6  7  1  0  0  0  0
  6  8  1  0  0  0  0
  6  9  2  0  0  0  0
  7 11  1  0  0  0  0
  7 12  2  0  0  0  0
 10 13  1  0  0  0  0
 10 21  1  0  0  0  0
 10 22  1  0  0  0  0
 11 15  2  0  0  0  0
 11 16  1  0  0  0  0
 12 23  1  0  0  0  0
 13 14  1  0  0  0  0
 13 25  1  0  0  0  0
 13 26  1  0  0  0  0
 14 28  1  0  0  0  0
 14 29  1  0  0  0  0
 15 18  1  0  0  0  0
 15 30  1  0  0  0  0
 16 19  2  0  0  0  0
 16 31  1  0  0  0  0
 17 32  1  0  0  0  0
 18 20  2  0  0  0  0
 18 33  1  0  0  0  0
 19 20  1  0  0  0  0
 19 34  1  0  0  0  0
 20 35  1  0  0  0  0
M  END
> <PUBCHEM_COMPOUND_CID>
49830289

> <PUBCHEM_COMPOUND_CANONICALIZED>
1

> <PUBCHEM_CACTVS_COMPLEXITY>
296

> <PUBCHEM_CACTVS_HBOND_ACCEPTOR>
4

> <PUBCHEM_CACTVS_HBOND_DONOR>
3

> <PUBCHEM_CACTVS_ROTATABLE_BOND>
5

> <PUBCHEM_CACTVS_SUBSKEYS>
AAADceBzoAAAAAAAAAAAAAAAAAAAAWAAAAA8QAAAAAAAAFgB/AAAHgAQCAAADADhmwY9sN7JkgCgAjJnZACCgCmxAKAJ2aAoRJiIOGLA2dGEZAhqkALIyCcQgMAOgAAAAAAAAAAAAAAAAAAAAAAAAAAAAA==

> <PUBCHEM_IUPAC_OPENEYE_NAME>
3-[(5-phenyl-7H-pyrrolo[2,3-d]pyrimidin-4-yl)amino]propan-1-ol

> <PUBCHEM_IUPAC_CAS_NAME>
3-[(5-phenyl-7H-pyrrolo[2,3-d]pyrimidin-4-yl)amino]-1-propanol

> <PUBCHEM_IUPAC_NAME_MARKUP>
3-[(5-phenyl-7<I>H</I>-pyrrolo[2,3-d]pyrimidin-4-yl)amino]propan-1-ol

> <PUBCHEM_IUPAC_NAME>
3-[(5-phenyl-7H-pyrrolo[2,3-d]pyrimidin-4-yl)amino]propan-1-ol

> <PUBCHEM_IUPAC_SYSTEMATIC_NAME>
3-[(5-phenyl-7H-pyrrolo[2,3-d]pyrimidin-4-yl)amino]propan-1-ol

> <PUBCHEM_IUPAC_TRADITIONAL_NAME>
3-[(5-phenyl-7H-pyrrolo[2,3-d]pyrimidin-4-yl)amino]propan-1-ol

> <PUBCHEM_IUPAC_INCHI>
InChI=1S/C15H16N4O/c20-8-4-7-16-14-13-12(11-5-2-1-3-6-11)9-17-15(13)19-10-18-14/h1-3,5-6,9-10,20H,4,7-8H2,(H2,16,17,18,19)

> <PUBCHEM_IUPAC_INCHIKEY>
YUOWJICKAJQZLS-UHFFFAOYSA-N

> <PUBCHEM_XLOGP3_AA>
2.8

> <PUBCHEM_EXACT_MASS>
268.13241115

> <PUBCHEM_MOLECULAR_FORMULA>
C15H16N4O

> <PUBCHEM_MOLECULAR_WEIGHT>
268.31

> <PUBCHEM_SMILES>
C1=CC=C(C=C1)C2=CNC3=C2C(=NC=N3)NCCCO

> <PUBCHEM_OPENEYE_CAN_SMILES>
C1=CC=C(C=C1)C2=CNC3=C2C(=NC=N3)NCCCO

> <PUBCHEM_OPENEYE_ISO_SMILES>
C1=CC=C(C=C1)C2=CNC3=C2C(=NC=N3)NCCCO

> <PUBCHEM_CACTVS_TPSA>
73.8

> <PUBCHEM_MONOISOTOPIC_WEIGHT>
268.13241115

> <PUBCHEM_TOTAL_CHARGE>
0

> <PUBCHEM_HEAVY_ATOM_COUNT>
20

> <PUBCHEM_ATOM_DEF_STEREO_COUNT>
0

> <PUBCHEM_ATOM_UDEF_STEREO_COUNT>
0

> <PUBCHEM_BOND_DEF_STEREO_COUNT>
0

> <PUBCHEM_BOND_UDEF_STEREO_COUNT>
0

> <PUBCHEM_ISOTOPIC_ATOM_COUNT>
0

> <PUBCHEM_COMPONENT_COUNT>
1

> <PUBCHEM_CACTVS_TAUTO_COUNT>
-1

> <PUBCHEM_COORDINATE_TYPE>
1
5
255

> <PUBCHEM_BONDANNOTATIONS>
11  15  8
11  16  8
15  18  8
16  19  8
18  20  8
19  20  8
3  12  8
3  9  8
4  17  8
4  8  8
5  17  8
5  9  8
6  7  8
6  8  8
6  9  8
7  12  8

$$$$
