44460488
  -OEChem-03202506012D

146157  0     1  0  0  0  0  0999 V2000
   10.9862   -2.4167    0.0000 O   0  0  0  0  0  0  0  0  0  0  0  0
   12.7183   -0.4167    0.0000 O   0  0  0  0  0  0  0  0  0  0  0  0
    7.7564   -5.0666    0.0000 O   0  0  0  0  0  0  0  0  0  0  0  0
    9.6626    1.0924    0.0000 O   0  0  0  0  0  0  0  0  0  0  0  0
    6.8646   -2.8447    0.0000 O   0  0  0  0  0  0  0  0  0  0  0  0
    8.8951    0.5616    0.0000 O   0  0  0  0  0  0  0  0  0  0  0  0
    7.4561   -2.4408    0.0000 O   0  0  0  0  0  0  0  0  0  0  0  0
    8.7033    3.6325    0.0000 O   0  0  0  0  0  0  0  0  0  0  0  0
   13.1791    0.1967    0.0000 O   0  0  0  0  0  0  0  0  0  0  0  0
   10.7674   -3.2778    0.0000 O   0  0  0  0  0  0  0  0  0  0  0  0
   12.3543    3.3421    0.0000 O   0  0  0  0  0  0  0  0  0  0  0  0
   10.8219   -6.8172    0.0000 O   0  0  0  0  0  0  0  0  0  0  0  0
   14.0451   -1.5300    0.0000 O   0  0  0  0  0  0  0  0  0  0  0  0
   13.5843   -4.9166    0.0000 O   0  0  0  0  0  0  0  0  0  0  0  0
    5.1442   -3.8646    0.0000 O   0  0  0  0  0  0  0  0  0  0  0  0
   15.3163   -3.9166    0.0000 O   0  0  0  0  0  0  0  0  0  0  0  0
    7.2865   -7.6703    0.0000 O   0  0  0  0  0  0  0  0  0  0  0  0
    5.2865   -7.6934    0.0000 O   0  0  0  0  0  0  0  0  0  0  0  0
    5.7271    3.0574    0.0000 O   0  0  0  0  0  0  0  0  0  0  0  0
   10.0344    4.7407    0.0000 O   0  0  0  0  0  0  0  0  0  0  0  0
    5.0490    1.5228    0.0000 O   0  0  0  0  0  0  0  0  0  0  0  0
   14.3046    2.8212    0.0000 O   0  0  0  0  0  0  0  0  0  0  0  0
   16.9583    0.5945    0.0000 O   0  0  0  0  0  0  0  0  0  0  0  0
   16.2742    2.4739    0.0000 O   0  0  0  0  0  0  0  0  0  0  0  0
    4.2378   -0.3749    0.0000 O   0  0  0  0  0  0  0  0  0  0  0  0
    2.5405   -3.3946    0.0000 O   0  0  0  0  0  0  0  0  0  0  0  0
    2.5175   -1.3947    0.0000 O   0  0  0  0  0  0  0  0  0  0  0  0
    8.4606    7.9846    0.0000 O   0  0  0  0  0  0  0  0  0  0  0  0
    5.7983    5.7682    0.0000 O   0  0  0  0  0  0  0  0  0  0  0  0
    6.4896    7.6449    0.0000 O   0  0  0  0  0  0  0  0  0  0  0  0
   10.9862   -0.4167    0.0000 C   0  0  2  0  0  0  0  0  0  0  0  0
   11.8522   -0.9167    0.0000 C   0  0  3  0  0  0  0  0  0  0  0  0
    8.7363   -3.3231    0.0000 C   0  0  2  0  0  0  0  0  0  0  0  0
   10.1202   -0.9167    0.0000 C   0  0  0  0  0  0  0  0  0  0  0  0
   11.8522   -1.9166    0.0000 C   0  0  1  0  0  0  0  0  0  0  0  0
   10.1202   -1.9166    0.0000 C   0  0  0  0  0  0  0  0  0  0  0  0
    9.2262   -2.4513    0.0000 C   0  0  0  0  0  0  0  0  0  0  0  0
    7.7364   -3.3347    0.0000 C   0  0  2  0  0  0  0  0  0  0  0  0
   11.3282    0.5230    0.0000 C   0  0  0  0  0  0  0  0  0  0  0  0
    7.2464   -4.2064    0.0000 C   0  0  1  0  0  0  0  0  0  0  0  0
    9.2463   -4.1832    0.0000 C   0  0  0  0  0  0  0  0  0  0  0  0
   10.6854    1.2891    0.0000 C   0  0  0  0  0  0  0  0  0  0  0  0
    9.2262   -0.3820    0.0000 C   0  0  0  0  0  0  0  0  0  0  0  0
    8.3202   -1.9375    0.0000 C   0  0  0  0  0  0  0  0  0  0  0  0
   12.7183   -2.4167    0.0000 C   0  0  0  0  0  0  0  0  0  0  0  0
   11.0275    2.2288    0.0000 C   0  0  0  0  0  0  0  0  0  0  0  0
   10.3703    3.0369    0.0000 C   0  0  0  0  0  0  0  0  0  0  0  0
    9.3431    2.8640    0.0000 C   0  0  3  0  0  0  0  0  0  0  0  0
    8.7563   -5.0550    0.0000 C   0  0  0  0  0  0  0  0  0  0  0  0
    8.9869    1.8852    0.0000 C   0  0  1  0  0  0  0  0  0  0  0  0
   12.3130    0.6967    0.0000 C   0  0  0  0  0  0  0  0  0  0  0  0
    8.3202   -0.8958    0.0000 C   0  0  0  0  0  0  0  0  0  0  0  0
    6.7564   -5.0781    0.0000 C   0  0  0  0  0  0  0  0  0  0  0  0
   10.2875   -4.1552    0.0000 C   0  0  0  0  0  0  0  0  0  0  0  0
   12.0123    2.4024    0.0000 C   0  0  0  0  0  0  0  0  0  0  0  0
   12.6551    1.6364    0.0000 C   0  0  0  0  0  0  0  0  0  0  0  0
   12.7183   -3.4166    0.0000 C   0  0  0  0  0  0  0  0  0  0  0  0
   13.5843   -1.9166    0.0000 C   0  0  0  0  0  0  0  0  0  0  0  0
    9.2736   -5.9591    0.0000 C   0  0  0  0  0  0  0  0  0  0  0  0
    8.0027    1.7077    0.0000 C   0  0  0  0  0  0  0  0  0  0  0  0
   10.8256   -5.0470    0.0000 C   0  0  0  0  0  0  0  0  0  0  0  0
   13.7031   -0.5903    0.0000 C   0  0  0  0  0  0  0  0  0  0  0  0
   10.3153   -5.9551    0.0000 C   0  0  0  0  0  0  0  0  0  0  0  0
    7.2664   -5.9384    0.0000 C   0  0  0  0  0  0  0  0  0  0  0  0
    5.7565   -5.0898    0.0000 C   0  0  0  0  0  0  0  0  0  0  0  0
    6.0043   -3.3546    0.0000 C   0  0  0  0  0  0  0  0  0  0  0  0
   13.5843   -3.9166    0.0000 C   0  0  0  0  0  0  0  0  0  0  0  0
   14.4503   -2.4167    0.0000 C   0  0  0  0  0  0  0  0  0  0  0  0
    7.3570    2.4713    0.0000 C   0  0  0  0  0  0  0  0  0  0  0  0
    7.6644    0.7668    0.0000 C   0  0  0  0  0  0  0  0  0  0  0  0
   14.4503   -3.4166    0.0000 C   0  0  0  0  0  0  0  0  0  0  0  0
   14.3459    0.1757    0.0000 C   0  0  0  0  0  0  0  0  0  0  0  0
    6.7764   -6.8101    0.0000 C   0  0  0  0  0  0  0  0  0  0  0  0
    5.2665   -5.9615    0.0000 C   0  0  0  0  0  0  0  0  0  0  0  0
    9.0489    4.5709    0.0000 C   0  0  0  0  0  0  0  0  0  0  0  0
    5.7764   -6.8216    0.0000 C   0  0  0  0  0  0  0  0  0  0  0  0
    5.1326   -2.8646    0.0000 C   0  0  0  0  0  0  0  0  0  0  0  0
    6.3729    2.2938    0.0000 C   0  0  0  0  0  0  0  0  0  0  0  0
    6.6802    0.5894    0.0000 C   0  0  0  0  0  0  0  0  0  0  0  0
    6.0345    1.3529    0.0000 C   0  0  0  0  0  0  0  0  0  0  0  0
   15.3307    0.0021    0.0000 C   0  0  0  0  0  0  0  0  0  0  0  0
   14.0038    1.1154    0.0000 C   0  0  0  0  0  0  0  0  0  0  0  0
    8.4091    5.3394    0.0000 C   0  0  0  0  0  0  0  0  0  0  0  0
    4.2724   -3.3746    0.0000 C   0  0  0  0  0  0  0  0  0  0  0  0
    5.1211   -1.8648    0.0000 C   0  0  0  0  0  0  0  0  0  0  0  0
   14.6466    1.8815    0.0000 C   0  0  0  0  0  0  0  0  0  0  0  0
   15.9735    0.7681    0.0000 C   0  0  0  0  0  0  0  0  0  0  0  0
   15.6314    1.7078    0.0000 C   0  0  0  0  0  0  0  0  0  0  0  0
    4.2494   -1.3748    0.0000 C   0  0  0  0  0  0  0  0  0  0  0  0
    3.4007   -2.8846    0.0000 C   0  0  0  0  0  0  0  0  0  0  0  0
    7.4236    5.1695    0.0000 C   0  0  0  0  0  0  0  0  0  0  0  0
    8.7548    6.2778    0.0000 C   0  0  0  0  0  0  0  0  0  0  0  0
    3.3892   -1.8847    0.0000 C   0  0  0  0  0  0  0  0  0  0  0  0
    8.1149    7.0463    0.0000 C   0  0  0  0  0  0  0  0  0  0  0  0
    6.7838    5.9380    0.0000 C   0  0  0  0  0  0  0  0  0  0  0  0
    7.1294    6.8764    0.0000 C   0  0  0  0  0  0  0  0  0  0  0  0
   11.7849   -0.1259    0.0000 H   0  0  0  0  0  0  0  0  0  0  0  0
   12.3892   -1.2266    0.0000 H   0  0  0  0  0  0  0  0  0  0  0  0
    8.3028   -2.5919    0.0000 H   0  0  0  0  0  0  0  0  0  0  0  0
   11.8522   -2.5366    0.0000 H   0  0  0  0  0  0  0  0  0  0  0  0
    7.8899   -2.7340    0.0000 H   0  0  0  0  0  0  0  0  0  0  0  0
    6.7060   -3.9026    0.0000 H   0  0  0  0  0  0  0  0  0  0  0  0
   10.9112    3.3400    0.0000 H   0  0  0  0  0  0  0  0  0  0  0  0
   10.1642    3.6217    0.0000 H   0  0  0  0  0  0  0  0  0  0  0  0
    9.5585    3.4454    0.0000 H   0  0  0  0  0  0  0  0  0  0  0  0
    8.7782    1.3013    0.0000 H   0  0  0  0  0  0  0  0  0  0  0  0
    7.7844   -0.5838    0.0000 H   0  0  0  0  0  0  0  0  0  0  0  0
   13.2656    1.7440    0.0000 H   0  0  0  0  0  0  0  0  0  0  0  0
   12.1813   -3.7266    0.0000 H   0  0  0  0  0  0  0  0  0  0  0  0
   13.5843   -1.2966    0.0000 H   0  0  0  0  0  0  0  0  0  0  0  0
    8.9636   -6.4960    0.0000 H   0  0  0  0  0  0  0  0  0  0  0  0
   11.4456   -5.0375    0.0000 H   0  0  0  0  0  0  0  0  0  0  0  0
    8.2858    0.6763    0.0000 H   0  0  0  0  0  0  0  0  0  0  0  0
    6.9180   -2.1329    0.0000 H   0  0  0  0  0  0  0  0  0  0  0  0
    7.8864   -5.9312    0.0000 H   0  0  0  0  0  0  0  0  0  0  0  0
    5.4403   -4.5564    0.0000 H   0  0  0  0  0  0  0  0  0  0  0  0
   13.7160    0.5067    0.0000 H   0  0  0  0  0  0  0  0  0  0  0  0
   14.9872   -2.1066    0.0000 H   0  0  0  0  0  0  0  0  0  0  0  0
    7.5668    3.0547    0.0000 H   0  0  0  0  0  0  0  0  0  0  0  0
    8.0647    0.2934    0.0000 H   0  0  0  0  0  0  0  0  0  0  0  0
   11.3872   -3.2635    0.0000 H   0  0  0  0  0  0  0  0  0  0  0  0
   12.9649    3.4498    0.0000 H   0  0  0  0  0  0  0  0  0  0  0  0
    4.6466   -5.9686    0.0000 H   0  0  0  0  0  0  0  0  0  0  0  0
    6.4704    0.0059    0.0000 H   0  0  0  0  0  0  0  0  0  0  0  0
   10.5161   -7.3565    0.0000 H   0  0  0  0  0  0  0  0  0  0  0  0
   15.5427   -0.5805    0.0000 H   0  0  0  0  0  0  0  0  0  0  0  0
   13.3933    1.2231    0.0000 H   0  0  0  0  0  0  0  0  0  0  0  0
   14.1212   -5.2266    0.0000 H   0  0  0  0  0  0  0  0  0  0  0  0
    4.2796   -3.9946    0.0000 H   0  0  0  0  0  0  0  0  0  0  0  0
    5.6544   -1.5486    0.0000 H   0  0  0  0  0  0  0  0  0  0  0  0
   15.8533   -3.6066    0.0000 H   0  0  0  0  0  0  0  0  0  0  0  0
    7.9064   -7.6631    0.0000 H   0  0  0  0  0  0  0  0  0  0  0  0
    5.6027   -8.2267    0.0000 H   0  0  0  0  0  0  0  0  0  0  0  0
    5.1170    2.9474    0.0000 H   0  0  0  0  0  0  0  0  0  0  0  0
    7.2093    4.5877    0.0000 H   0  0  0  0  0  0  0  0  0  0  0  0
    9.3657    6.3830    0.0000 H   0  0  0  0  0  0  0  0  0  0  0  0
    4.6523    1.0463    0.0000 H   0  0  0  0  0  0  0  0  0  0  0  0
   13.6940    2.9288    0.0000 H   0  0  0  0  0  0  0  0  0  0  0  0
   17.1703    0.0119    0.0000 H   0  0  0  0  0  0  0  0  0  0  0  0
   16.8848    2.3662    0.0000 H   0  0  0  0  0  0  0  0  0  0  0  0
    4.7712   -0.0587    0.0000 H   0  0  0  0  0  0  0  0  0  0  0  0
    2.0000   -3.0908    0.0000 H   0  0  0  0  0  0  0  0  0  0  0  0
    2.5103   -0.7747    0.0000 H   0  0  0  0  0  0  0  0  0  0  0  0
    9.0716    8.0899    0.0000 H   0  0  0  0  0  0  0  0  0  0  0  0
    5.4016    6.2447    0.0000 H   0  0  0  0  0  0  0  0  0  0  0  0
    6.7039    8.2267    0.0000 H   0  0  0  0  0  0  0  0  0  0  0  0
  1 35  1  0  0  0  0
  1 36  1  0  0  0  0
  2 32  1  0  0  0  0
  2 62  1  0  0  0  0
  3 40  1  0  0  0  0
  3 49  1  0  0  0  0
  4 42  1  0  0  0  0
  4 50  1  0  0  0  0
 38  5  1  6  0  0  0
  5 66  1  0  0  0  0
  6 43  1  0  0  0  0
  6113  1  0  0  0  0
  7 44  1  0  0  0  0
  7114  1  0  0  0  0
  8 48  1  0  0  0  0
  8 75  1  0  0  0  0
  9 51  1  0  0  0  0
  9117  1  0  0  0  0
 10 54  1  0  0  0  0
 10121  1  0  0  0  0
 11 55  1  0  0  0  0
 11122  1  0  0  0  0
 12 63  1  0  0  0  0
 12125  1  0  0  0  0
 13 62  2  0  0  0  0
 14 67  1  0  0  0  0
 14128  1  0  0  0  0
 15 66  2  0  0  0  0
 16 71  1  0  0  0  0
 16131  1  0  0  0  0
 17 73  1  0  0  0  0
 17132  1  0  0  0  0
 18 76  1  0  0  0  0
 18133  1  0  0  0  0
 19 78  1  0  0  0  0
 19134  1  0  0  0  0
 20 75  2  0  0  0  0
 21 80  1  0  0  0  0
 21137  1  0  0  0  0
 22 86  1  0  0  0  0
 22138  1  0  0  0  0
 23 87  1  0  0  0  0
 23139  1  0  0  0  0
 24 88  1  0  0  0  0
 24140  1  0  0  0  0
 25 89  1  0  0  0  0
 25141  1  0  0  0  0
 26 90  1  0  0  0  0
 26142  1  0  0  0  0
 27 93  1  0  0  0  0
 27143  1  0  0  0  0
 28 94  1  0  0  0  0
 28144  1  0  0  0  0
 29 95  1  0  0  0  0
 29145  1  0  0  0  0
 30 96  1  0  0  0  0
 30146  1  0  0  0  0
 31 32  1  0  0  0  0
 31 34  1  0  0  0  0
 31 39  1  0  0  0  0
 31 97  1  1  0  0  0
 32 35  1  0  0  0  0
 32 98  1  0  0  0  0
 33 37  1  0  0  0  0
 33 38  1  0  0  0  0
 33 41  1  0  0  0  0
 33 99  1  6  0  0  0
 34 36  1  0  0  0  0
 34 43  2  0  0  0  0
 35 45  1  1  0  0  0
 35100  1  0  0  0  0
 36 37  2  0  0  0  0
 37 44  1  0  0  0  0
 38 40  1  0  0  0  0
 38101  1  0  0  0  0
 39 42  1  0  0  0  0
 39 51  2  0  0  0  0
 40 53  1  6  0  0  0
 40102  1  0  0  0  0
 41 49  1  0  0  0  0
 41 54  2  0  0  0  0
 42 46  2  0  0  0  0
 43 52  1  0  0  0  0
 44 52  2  0  0  0  0
 45 57  2  0  0  0  0
 45 58  1  0  0  0  0
 46 47  1  0  0  0  0
 46 55  1  0  0  0  0
 47 48  1  0  0  0  0
 47103  1  0  0  0  0
 47104  1  0  0  0  0
 48 50  1  0  0  0  0
 48105  1  0  0  0  0
 49 59  2  0  0  0  0
 50 60  1  6  0  0  0
 50106  1  0  0  0  0
 51 56  1  0  0  0  0
 52107  1  0  0  0  0
 53 64  2  0  0  0  0
 53 65  1  0  0  0  0
 54 61  1  0  0  0  0
 55 56  2  0  0  0  0
 56108  1  0  0  0  0
 57 67  1  0  0  0  0
 57109  1  0  0  0  0
 58 68  2  0  0  0  0
 58110  1  0  0  0  0
 59 63  1  0  0  0  0
 59111  1  0  0  0  0
 60 69  2  0  0  0  0
 60 70  1  0  0  0  0
 61 63  2  0  0  0  0
 61112  1  0  0  0  0
 62 72  1  0  0  0  0
 64 73  1  0  0  0  0
 64115  1  0  0  0  0
 65 74  2  0  0  0  0
 65116  1  0  0  0  0
 66 77  1  0  0  0  0
 67 71  2  0  0  0  0
 68 71  1  0  0  0  0
 68118  1  0  0  0  0
 69 78  1  0  0  0  0
 69119  1  0  0  0  0
 70 79  2  0  0  0  0
 70120  1  0  0  0  0
 72 81  2  0  0  0  0
 72 82  1  0  0  0  0
 73 76  2  0  0  0  0
 74 76  1  0  0  0  0
 74123  1  0  0  0  0
 75 83  1  0  0  0  0
 77 84  2  0  0  0  0
 77 85  1  0  0  0  0
 78 80  2  0  0  0  0
 79 80  1  0  0  0  0
 79124  1  0  0  0  0
 81 87  1  0  0  0  0
 81126  1  0  0  0  0
 82 86  2  0  0  0  0
 82127  1  0  0  0  0
 83 91  2  0  0  0  0
 83 92  1  0  0  0  0
 84 90  1  0  0  0  0
 84129  1  0  0  0  0
 85 89  2  0  0  0  0
 85130  1  0  0  0  0
 86 88  1  0  0  0  0
 87 88  2  0  0  0  0
 89 93  1  0  0  0  0
 90 93  2  0  0  0  0
 91 95  1  0  0  0  0
 91135  1  0  0  0  0
 92 94  2  0  0  0  0
 92136  1  0  0  0  0
 94 96  1  0  0  0  0
 95 96  2  0  0  0  0
M  END
> <PUBCHEM_COMPOUND_CID>
44460488

> <PUBCHEM_COMPOUND_CANONICALIZED>
1

> <PUBCHEM_CACTVS_COMPLEXITY>
2610

> <PUBCHEM_CACTVS_HBOND_ACCEPTOR>
30

> <PUBCHEM_CACTVS_HBOND_DONOR>
21

> <PUBCHEM_CACTVS_ROTATABLE_BOND>
14

> <PUBCHEM_CACTVS_SUBSKEYS>
AAADcfB8PgAAAAAAAAAAAAAAAAAAAAAAAAA0aNGDAAAAAACRVAAAGgAACAAADRSgmAIwDoAABgCIAiDSCAACCAAkIAAIiAEGiMgNJzKGNRqCeSGlwBULuYfK7PzOoAADCAAIQABAAAYQABCAAAAAAAAAAA==

> <PUBCHEM_IUPAC_OPENEYE_NAME>
[(2R)-2-(3,4-dihydroxyphenyl)-8-[(2R,4S)-2-(3,4-dihydroxyphenyl)-8-[(2R,3R,4R)-2-(3,4-dihydroxyphenyl)-5,7-dihydroxy-3-(3,4,5-trihydroxybenzoyl)oxy-chroman-4-yl]-5,7-dihydroxy-3-(3,4,5-trihydroxybenzoyl)oxy-chroman-4-yl]-5,7-dihydroxy-chroman-3-yl] 3,4,5-trihydroxybenzoate

> <PUBCHEM_IUPAC_CAS_NAME>
3,4,5-trihydroxybenzoic acid [(2R)-2-(3,4-dihydroxyphenyl)-8-[(2R,4S)-2-(3,4-dihydroxyphenyl)-8-[(2R,3R,4R)-2-(3,4-dihydroxyphenyl)-5,7-dihydroxy-3-[oxo-(3,4,5-trihydroxyphenyl)methoxy]-3,4-dihydro-2H-1-benzopyran-4-yl]-5,7-dihydroxy-3-[oxo-(3,4,5-trihydroxyphenyl)methoxy]-3,4-dihydro-2H-1-benzopyran-4-yl]-5,7-dihydroxy-3,4-dihydro-2H-1-benzopyran-3-yl] ester

> <PUBCHEM_IUPAC_NAME_MARKUP>
[(2<I>R</I>)-2-(3,4-dihydroxyphenyl)-8-[(2<I>R</I>,4<I>S</I>)-2-(3,4-dihydroxyphenyl)-8-[(2<I>R</I>,3<I>R</I>,4<I>R</I>)-2-(3,4-dihydroxyphenyl)-5,7-dihydroxy-3-(3,4,5-trihydroxybenzoyl)oxy-3,4-dihydro-2<I>H</I>-chromen-4-yl]-5,7-dihydroxy-3-(3,4,5-trihydroxybenzoyl)oxy-3,4-dihydro-2<I>H</I>-chromen-4-yl]-5,7-dihydroxy-3,4-dihydro-2<I>H</I>-chromen-3-yl] 3,4,5-trihydroxybenzoate

> <PUBCHEM_IUPAC_NAME>
[(2R)-2-(3,4-dihydroxyphenyl)-8-[(2R,4S)-2-(3,4-dihydroxyphenyl)-8-[(2R,3R,4R)-2-(3,4-dihydroxyphenyl)-5,7-dihydroxy-3-(3,4,5-trihydroxybenzoyl)oxy-3,4-dihydro-2H-chromen-4-yl]-5,7-dihydroxy-3-(3,4,5-trihydroxybenzoyl)oxy-3,4-dihydro-2H-chromen-4-yl]-5,7-dihydroxy-3,4-dihydro-2H-chromen-3-yl] 3,4,5-trihydroxybenzoate

> <PUBCHEM_IUPAC_SYSTEMATIC_NAME>
[(2R)-2-[3,4-bis(oxidanyl)phenyl]-8-[(2R,4S)-2-[3,4-bis(oxidanyl)phenyl]-8-[(2R,3R,4R)-2-[3,4-bis(oxidanyl)phenyl]-5,7-bis(oxidanyl)-3-[3,4,5-tris(oxidanyl)phenyl]carbonyloxy-3,4-dihydro-2H-chromen-4-yl]-5,7-bis(oxidanyl)-3-[3,4,5-tris(oxidanyl)phenyl]carbonyloxy-3,4-dihydro-2H-chromen-4-yl]-5,7-bis(oxidanyl)-3,4-dihydro-2H-chromen-3-yl] 3,4,5-tris(oxidanyl)benzoate

> <PUBCHEM_IUPAC_TRADITIONAL_NAME>
3,4,5-trihydroxybenzoic acid [(2R)-2-(3,4-dihydroxyphenyl)-8-[(2R,4S)-2-(3,4-dihydroxyphenyl)-8-[(2R,3R,4R)-2-(3,4-dihydroxyphenyl)-3-galloyloxy-5,7-dihydroxy-chroman-4-yl]-3-galloyloxy-5,7-dihydroxy-chroman-4-yl]-5,7-dihydroxy-chroman-3-yl] ester

> <PUBCHEM_IUPAC_INCHI>
InChI=1S/C66H50O30/c67-27-16-36(75)48-46(17-27)91-58(22-2-5-30(69)34(73)8-22)62(95-65(89)25-12-42(81)55(86)43(82)13-25)52(48)50-38(77)20-39(78)51-53(63(96-66(90)26-14-44(83)56(87)45(84)15-26)59(94-61(50)51)23-3-6-31(70)35(74)9-23)49-37(76)19-32(71)28-18-47(92-64(88)24-10-40(79)54(85)41(80)11-24)57(93-60(28)49)21-1-4-29(68)33(72)7-21/h1-17,19-20,47,52-53,57-59,62-63,67-87H,18H2/t47?,52-,53+,57-,58-,59-,62-,63?/m1/s1

> <PUBCHEM_IUPAC_INCHIKEY>
QKXUXZSVOPLDOD-DCDIEVDFSA-N

> <PUBCHEM_XLOGP3_AA>
6.8

> <PUBCHEM_EXACT_MASS>
1322.23869017

> <PUBCHEM_MOLECULAR_FORMULA>
C66H50O30

> <PUBCHEM_MOLECULAR_WEIGHT>
1323.1

> <PUBCHEM_SMILES>
C1C([C@H](OC2=C1C(=CC(=C2[C@@H]3C([C@H](OC4=C(C(=CC(=C34)O)O)[C@@H]5[C@H]([C@H](OC6=CC(=CC(=C56)O)O)C7=CC(=C(C=C7)O)O)OC(=O)C8=CC(=C(C(=C8)O)O)O)C9=CC(=C(C=C9)O)O)OC(=O)C1=CC(=C(C(=C1)O)O)O)O)O)C1=CC(=C(C=C1)O)O)OC(=O)C1=CC(=C(C(=C1)O)O)O

> <PUBCHEM_OPENEYE_CAN_SMILES>
C1C(C(OC2=C1C(=CC(=C2C3C(C(OC4=C(C(=CC(=C34)O)O)C5C(C(OC6=CC(=CC(=C56)O)O)C7=CC(=C(C=C7)O)O)OC(=O)C8=CC(=C(C(=C8)O)O)O)C9=CC(=C(C=C9)O)O)OC(=O)C1=CC(=C(C(=C1)O)O)O)O)O)C1=CC(=C(C=C1)O)O)OC(=O)C1=CC(=C(C(=C1)O)O)O

> <PUBCHEM_OPENEYE_ISO_SMILES>
C1C([C@H](OC2=C1C(=CC(=C2[C@@H]3C([C@H](OC4=C(C(=CC(=C34)O)O)[C@@H]5[C@H]([C@H](OC6=CC(=CC(=C56)O)O)C7=CC(=C(C=C7)O)O)OC(=O)C8=CC(=C(C(=C8)O)O)O)C9=CC(=C(C=C9)O)O)OC(=O)C1=CC(=C(C(=C1)O)O)O)O)O)C1=CC(=C(C=C1)O)O)OC(=O)C1=CC(=C(C(=C1)O)O)O

> <PUBCHEM_CACTVS_TPSA>
531

> <PUBCHEM_MONOISOTOPIC_WEIGHT>
1322.23869017

> <PUBCHEM_TOTAL_CHARGE>
0

> <PUBCHEM_HEAVY_ATOM_COUNT>
96

> <PUBCHEM_ATOM_DEF_STEREO_COUNT>
6

> <PUBCHEM_ATOM_UDEF_STEREO_COUNT>
2

> <PUBCHEM_BOND_DEF_STEREO_COUNT>
0

> <PUBCHEM_BOND_UDEF_STEREO_COUNT>
0

> <PUBCHEM_ISOTOPIC_ATOM_COUNT>
0

> <PUBCHEM_COMPONENT_COUNT>
1

> <PUBCHEM_CACTVS_TAUTO_COUNT>
-1

> <PUBCHEM_COORDINATE_TYPE>
1
5
255

> <PUBCHEM_BONDANNOTATIONS>
32  2  3
31  97  5
33  99  6
34  36  8
34  43  8
35  45  5
36  37  8
37  44  8
39  42  8
39  51  8
40  53  6
41  49  8
41  54  8
42  46  8
43  52  8
44  52  8
45  57  8
45  58  8
46  55  8
49  59  8
38  5  6
50  60  6
51  56  8
53  64  8
53  65  8
54  61  8
55  56  8
57  67  8
58  68  8
59  63  8
60  69  8
60  70  8
61  63  8
64  73  8
65  74  8
67  71  8
68  71  8
69  78  8
70  79  8
72  81  8
72  82  8
73  76  8
74  76  8
77  84  8
77  85  8
78  80  8
79  80  8
48  8  3
81  87  8
82  86  8
83  91  8
83  92  8
84  90  8
85  89  8
86  88  8
87  88  8
89  93  8
90  93  8
91  95  8
92  94  8
94  96  8
95  96  8

$$$$
