49830455
  -OEChem-03202503312D

 37 39  0     0  0  0  0  0  0999 V2000
    3.7320    0.1970    0.0000 O   0  0  0  0  0  0  0  0  0  0  0  0
    5.5443   -2.6077    0.0000 N   0  0  0  0  0  0  0  0  0  0  0  0
    3.7320   -2.8030    0.0000 N   0  0  0  0  0  0  0  0  0  0  0  0
    2.8660   -1.3030    0.0000 N   0  0  0  0  0  0  0  0  0  0  0  0
    4.5981   -1.3030    0.0000 C   0  0  0  0  0  0  0  0  0  0  0  0
    5.5443   -0.9982    0.0000 C   0  0  0  0  0  0  0  0  0  0  0  0
    4.5981   -2.3030    0.0000 C   0  0  0  0  0  0  0  0  0  0  0  0
    2.8660    1.6970    0.0000 C   0  0  0  0  0  0  0  0  0  0  0  0
    3.7320   -0.8030    0.0000 C   0  0  0  0  0  0  0  0  0  0  0  0
    2.8660    0.6970    0.0000 C   0  0  0  0  0  0  0  0  0  0  0  0
    5.8550   -0.0477    0.0000 C   0  0  0  0  0  0  0  0  0  0  0  0
    6.1279   -1.8030    0.0000 C   0  0  0  0  0  0  0  0  0  0  0  0
    2.0000    2.1970    0.0000 C   0  0  0  0  0  0  0  0  0  0  0  0
    5.1871    0.6966    0.0000 C   0  0  0  0  0  0  0  0  0  0  0  0
    6.8335    0.1585    0.0000 C   0  0  0  0  0  0  0  0  0  0  0  0
    2.0000    3.1970    0.0000 C   0  0  0  0  0  0  0  0  0  0  0  0
    2.8660   -2.3030    0.0000 C   0  0  0  0  0  0  0  0  0  0  0  0
    5.4978    1.6471    0.0000 C   0  0  0  0  0  0  0  0  0  0  0  0
    7.1441    1.1090    0.0000 C   0  0  0  0  0  0  0  0  0  0  0  0
    6.4763    1.8533    0.0000 C   0  0  0  0  0  0  0  0  0  0  0  0
    3.4766    1.5894    0.0000 H   0  0  0  0  0  0  0  0  0  0  0  0
    3.0781    2.2796    0.0000 H   0  0  0  0  0  0  0  0  0  0  0  0
    2.2554    0.8047    0.0000 H   0  0  0  0  0  0  0  0  0  0  0  0
    2.6540    0.1144    0.0000 H   0  0  0  0  0  0  0  0  0  0  0  0
    6.7479   -1.8030    0.0000 H   0  0  0  0  0  0  0  0  0  0  0  0
    1.3894    2.3047    0.0000 H   0  0  0  0  0  0  0  0  0  0  0  0
    1.7880    1.6144    0.0000 H   0  0  0  0  0  0  0  0  0  0  0  0
    5.7369   -3.1970    0.0000 H   0  0  0  0  0  0  0  0  0  0  0  0
    2.6200    3.1970    0.0000 H   0  0  0  0  0  0  0  0  0  0  0  0
    2.0000    3.8170    0.0000 H   0  0  0  0  0  0  0  0  0  0  0  0
    1.3800    3.1970    0.0000 H   0  0  0  0  0  0  0  0  0  0  0  0
    4.5804    0.5687    0.0000 H   0  0  0  0  0  0  0  0  0  0  0  0
    7.2475   -0.3030    0.0000 H   0  0  0  0  0  0  0  0  0  0  0  0
    2.3291   -2.6130    0.0000 H   0  0  0  0  0  0  0  0  0  0  0  0
    5.0837    2.1086    0.0000 H   0  0  0  0  0  0  0  0  0  0  0  0
    7.7508    1.2369    0.0000 H   0  0  0  0  0  0  0  0  0  0  0  0
    6.6689    2.4426    0.0000 H   0  0  0  0  0  0  0  0  0  0  0  0
  1  9  1  0  0  0  0
  1 10  1  0  0  0  0
  2  7  1  0  0  0  0
  2 12  1  0  0  0  0
  2 28  1  0  0  0  0
  3  7  1  0  0  0  0
  3 17  2  0  0  0  0
  4  9  2  0  0  0  0
  4 17  1  0  0  0  0
  5  6  1  0  0  0  0
  5  7  2  0  0  0  0
  5  9  1  0  0  0  0
  6 11  1  0  0  0  0
  6 12  2  0  0  0  0
  8 10  1  0  0  0  0
  8 13  1  0  0  0  0
  8 21  1  0  0  0  0
  8 22  1  0  0  0  0
 10 23  1  0  0  0  0
 10 24  1  0  0  0  0
 11 14  2  0  0  0  0
 11 15  1  0  0  0  0
 12 25  1  0  0  0  0
 13 16  1  0  0  0  0
 13 26  1  0  0  0  0
 13 27  1  0  0  0  0
 14 18  1  0  0  0  0
 14 32  1  0  0  0  0
 15 19  2  0  0  0  0
 15 33  1  0  0  0  0
 16 29  1  0  0  0  0
 16 30  1  0  0  0  0
 16 31  1  0  0  0  0
 17 34  1  0  0  0  0
 18 20  2  0  0  0  0
 18 35  1  0  0  0  0
 19 20  1  0  0  0  0
 19 36  1  0  0  0  0
 20 37  1  0  0  0  0
M  END
> <PUBCHEM_COMPOUND_CID>
49830455

> <PUBCHEM_COMPOUND_CANONICALIZED>
1

> <PUBCHEM_CACTVS_COMPLEXITY>
293

> <PUBCHEM_CACTVS_HBOND_ACCEPTOR>
3

> <PUBCHEM_CACTVS_HBOND_DONOR>
1

> <PUBCHEM_CACTVS_ROTATABLE_BOND>
5

> <PUBCHEM_CACTVS_SUBSKEYS>
AAADceB7IAAAAAAAAAAAAAAAAAAAAWAAAAA8QAAAAAAAAFgB/AAAHgAQAAAADADhmwY/tN7JlACgAjJnZACCiCmxIKAJ2aAsTJiMLmLE+duOPCjuwBvI6CewwOAOgAAAAAAAAAAAAAAAAAAAAAAAAAAAAA==

> <PUBCHEM_IUPAC_OPENEYE_NAME>
4-butoxy-5-phenyl-7H-pyrrolo[2,3-d]pyrimidine

> <PUBCHEM_IUPAC_CAS_NAME>
4-butoxy-5-phenyl-7H-pyrrolo[2,3-d]pyrimidine

> <PUBCHEM_IUPAC_NAME_MARKUP>
4-butoxy-5-phenyl-7<I>H</I>-pyrrolo[2,3-d]pyrimidine

> <PUBCHEM_IUPAC_NAME>
4-butoxy-5-phenyl-7H-pyrrolo[2,3-d]pyrimidine

> <PUBCHEM_IUPAC_SYSTEMATIC_NAME>
4-butoxy-5-phenyl-7H-pyrrolo[2,3-d]pyrimidine

> <PUBCHEM_IUPAC_TRADITIONAL_NAME>
4-butoxy-5-phenyl-7H-pyrrolo[2,3-d]pyrimidine

> <PUBCHEM_IUPAC_INCHI>
InChI=1S/C16H17N3O/c1-2-3-9-20-16-14-13(12-7-5-4-6-8-12)10-17-15(14)18-11-19-16/h4-8,10-11H,2-3,9H2,1H3,(H,17,18,19)

> <PUBCHEM_IUPAC_INCHIKEY>
GDYZFFBMSBDTAA-UHFFFAOYSA-N

> <PUBCHEM_XLOGP3_AA>
3.8

> <PUBCHEM_EXACT_MASS>
267.137162174

> <PUBCHEM_MOLECULAR_FORMULA>
C16H17N3O

> <PUBCHEM_MOLECULAR_WEIGHT>
267.33

> <PUBCHEM_SMILES>
CCCCOC1=NC=NC2=C1C(=CN2)C3=CC=CC=C3

> <PUBCHEM_OPENEYE_CAN_SMILES>
CCCCOC1=NC=NC2=C1C(=CN2)C3=CC=CC=C3

> <PUBCHEM_OPENEYE_ISO_SMILES>
CCCCOC1=NC=NC2=C1C(=CN2)C3=CC=CC=C3

> <PUBCHEM_CACTVS_TPSA>
50.8

> <PUBCHEM_MONOISOTOPIC_WEIGHT>
267.137162174

> <PUBCHEM_TOTAL_CHARGE>
0

> <PUBCHEM_HEAVY_ATOM_COUNT>
20

> <PUBCHEM_ATOM_DEF_STEREO_COUNT>
0

> <PUBCHEM_ATOM_UDEF_STEREO_COUNT>
0

> <PUBCHEM_BOND_DEF_STEREO_COUNT>
0

> <PUBCHEM_BOND_UDEF_STEREO_COUNT>
0

> <PUBCHEM_ISOTOPIC_ATOM_COUNT>
0

> <PUBCHEM_COMPONENT_COUNT>
1

> <PUBCHEM_CACTVS_TAUTO_COUNT>
-1

> <PUBCHEM_COORDINATE_TYPE>
1
5
255

> <PUBCHEM_BONDANNOTATIONS>
11  14  8
11  15  8
14  18  8
15  19  8
18  20  8
19  20  8
2  12  8
2  7  8
3  17  8
3  7  8
4  17  8
4  9  8
5  6  8
5  7  8
5  9  8
6  12  8

$$$$
