24905308
  -OEChem-03192523352D

 45 49  0     0  0  0  0  0  0999 V2000
    5.9209    5.0409    0.0000 F   0  0  0  0  0  0  0  0  0  0  0  0
    6.7094   -0.8570    0.0000 O   0  0  0  0  0  0  0  0  0  0  0  0
    7.2566    3.5523    0.0000 O   0  0  0  0  0  0  0  0  0  0  0  0
    4.6783   -0.3706    0.0000 N   0  0  0  0  0  0  0  0  0  0  0  0
    5.2619    0.4341    0.0000 N   0  0  0  0  0  0  0  0  0  0  0  0
    2.8660   -0.5659    0.0000 N   0  0  0  0  0  0  0  0  0  0  0  0
    2.0000    0.9341    0.0000 N   0  0  0  0  0  0  0  0  0  0  0  0
    7.3701   -2.3340    0.0000 N   0  0  0  0  0  0  0  0  0  0  0  0
    2.8660    2.4341    0.0000 N   0  0  0  0  0  0  0  0  0  0  0  0
    3.7320    0.9341    0.0000 C   0  0  0  0  0  0  0  0  0  0  0  0
    4.9889   -1.3212    0.0000 C   0  0  0  0  0  0  0  0  0  0  0  0
    3.7320   -0.0659    0.0000 C   0  0  0  0  0  0  0  0  0  0  0  0
    4.6783    1.2388    0.0000 C   0  0  0  0  0  0  0  0  0  0  0  0
    5.9674   -1.5274    0.0000 C   0  0  0  0  0  0  0  0  0  0  0  0
    4.9889    2.1893    0.0000 C   0  0  0  0  0  0  0  0  0  0  0  0
    2.8660    1.4341    0.0000 C   0  0  0  0  0  0  0  0  0  0  0  0
    6.3758   -2.4402    0.0000 C   0  0  0  0  0  0  0  0  0  0  0  0
    5.8772   -3.3071    0.0000 C   0  0  0  0  0  0  0  0  0  0  0  0
    5.9674    2.3956    0.0000 C   0  0  0  0  0  0  0  0  0  0  0  0
    4.3211    2.9336    0.0000 C   0  0  0  0  0  0  0  0  0  0  0  0
    2.0000   -0.0659    0.0000 C   0  0  0  0  0  0  0  0  0  0  0  0
    6.2781    3.3461    0.0000 C   0  0  0  0  0  0  0  0  0  0  0  0
    4.6318    3.8842    0.0000 C   0  0  0  0  0  0  0  0  0  0  0  0
    7.5763   -1.3555    0.0000 C   0  0  0  0  0  0  0  0  0  0  0  0
    6.3788   -4.1723    0.0000 C   0  0  0  0  0  0  0  0  0  0  0  0
    4.8773   -3.3088    0.0000 C   0  0  0  0  0  0  0  0  0  0  0  0
    5.6103    4.0904    0.0000 C   0  0  0  0  0  0  0  0  0  0  0  0
    5.8802   -5.0392    0.0000 C   0  0  0  0  0  0  0  0  0  0  0  0
    4.3788   -4.1757    0.0000 C   0  0  0  0  0  0  0  0  0  0  0  0
    4.8802   -5.0409    0.0000 C   0  0  0  0  0  0  0  0  0  0  0  0
    4.3751   -1.4085    0.0000 H   0  0  0  0  0  0  0  0  0  0  0  0
    4.9684   -1.9408    0.0000 H   0  0  0  0  0  0  0  0  0  0  0  0
    6.3815    1.9341    0.0000 H   0  0  0  0  0  0  0  0  0  0  0  0
    3.7144    2.8058    0.0000 H   0  0  0  0  0  0  0  0  0  0  0  0
    1.4631   -0.3759    0.0000 H   0  0  0  0  0  0  0  0  0  0  0  0
    4.2177    4.3456    0.0000 H   0  0  0  0  0  0  0  0  0  0  0  0
    8.1423   -1.1023    0.0000 H   0  0  0  0  0  0  0  0  0  0  0  0
    2.3291    2.7441    0.0000 H   0  0  0  0  0  0  0  0  0  0  0  0
    3.4030    2.7441    0.0000 H   0  0  0  0  0  0  0  0  0  0  0  0
    6.9988   -4.1712    0.0000 H   0  0  0  0  0  0  0  0  0  0  0  0
    4.5663   -2.7724    0.0000 H   0  0  0  0  0  0  0  0  0  0  0  0
    6.1912   -5.5756    0.0000 H   0  0  0  0  0  0  0  0  0  0  0  0
    3.7588   -4.1768    0.0000 H   0  0  0  0  0  0  0  0  0  0  0  0
    4.5712   -5.5784    0.0000 H   0  0  0  0  0  0  0  0  0  0  0  0
    7.4492    4.1416    0.0000 H   0  0  0  0  0  0  0  0  0  0  0  0
  1 27  1  0  0  0  0
  2 14  1  0  0  0  0
  2 24  1  0  0  0  0
  3 22  1  0  0  0  0
  3 45  1  0  0  0  0
  4  5  1  0  0  0  0
  4 11  1  0  0  0  0
  4 12  1  0  0  0  0
  5 13  2  0  0  0  0
  6 12  2  0  0  0  0
  6 21  1  0  0  0  0
  7 16  1  0  0  0  0
  7 21  2  0  0  0  0
  8 17  1  0  0  0  0
  8 24  2  0  0  0  0
  9 16  1  0  0  0  0
  9 38  1  0  0  0  0
  9 39  1  0  0  0  0
 10 12  1  0  0  0  0
 10 13  1  0  0  0  0
 10 16  2  0  0  0  0
 11 14  1  0  0  0  0
 11 31  1  0  0  0  0
 11 32  1  0  0  0  0
 13 15  1  0  0  0  0
 14 17  2  0  0  0  0
 15 19  2  0  0  0  0
 15 20  1  0  0  0  0
 17 18  1  0  0  0  0
 18 25  2  0  0  0  0
 18 26  1  0  0  0  0
 19 22  1  0  0  0  0
 19 33  1  0  0  0  0
 20 23  2  0  0  0  0
 20 34  1  0  0  0  0
 21 35  1  0  0  0  0
 22 27  2  0  0  0  0
 23 27  1  0  0  0  0
 23 36  1  0  0  0  0
 24 37  1  0  0  0  0
 25 28  1  0  0  0  0
 25 40  1  0  0  0  0
 26 29  2  0  0  0  0
 26 41  1  0  0  0  0
 28 30  2  0  0  0  0
 28 42  1  0  0  0  0
 29 30  1  0  0  0  0
 29 43  1  0  0  0  0
 30 44  1  0  0  0  0
M  END
> <PUBCHEM_COMPOUND_CID>
24905308

> <PUBCHEM_COMPOUND_CANONICALIZED>
1

> <PUBCHEM_CACTVS_COMPLEXITY>
582

> <PUBCHEM_CACTVS_HBOND_ACCEPTOR>
8

> <PUBCHEM_CACTVS_HBOND_DONOR>
2

> <PUBCHEM_CACTVS_ROTATABLE_BOND>
4

> <PUBCHEM_CACTVS_SUBSKEYS>
AAADccB7sQAAAAAAAAAAAAAAAAAAAWLAAAA8YIAAAAAAAFgB/gAAHwAYCAAADAzBnw41tt5IFkCqA6Zz9ASSjCs74KAd2CGvTJiOLrLG3fON9ChszBPY2Ce4yPCOAAABAAAAAAAAAAIAAAAAAAAAAAAAAA==

> <PUBCHEM_IUPAC_OPENEYE_NAME>
5-[4-amino-1-[(4-phenyloxazol-5-yl)methyl]pyrazolo[3,4-d]pyrimidin-3-yl]-2-fluoro-phenol

> <PUBCHEM_IUPAC_CAS_NAME>
5-[4-amino-1-[(4-phenyl-5-oxazolyl)methyl]-3-pyrazolo[3,4-d]pyrimidinyl]-2-fluorophenol

> <PUBCHEM_IUPAC_NAME_MARKUP>
5-[4-amino-1-[(4-phenyl-1,3-oxazol-5-yl)methyl]pyrazolo[3,4-d]pyrimidin-3-yl]-2-fluorophenol

> <PUBCHEM_IUPAC_NAME>
5-[4-amino-1-[(4-phenyl-1,3-oxazol-5-yl)methyl]pyrazolo[3,4-d]pyrimidin-3-yl]-2-fluorophenol

> <PUBCHEM_IUPAC_SYSTEMATIC_NAME>
5-[4-azanyl-1-[(4-phenyl-1,3-oxazol-5-yl)methyl]pyrazolo[3,4-d]pyrimidin-3-yl]-2-fluoranyl-phenol

> <PUBCHEM_IUPAC_TRADITIONAL_NAME>
5-[4-amino-1-[(4-phenyloxazol-5-yl)methyl]pyrazolo[3,4-d]pyrimidin-3-yl]-2-fluoro-phenol

> <PUBCHEM_IUPAC_INCHI>
InChI=1S/C21H15FN6O2/c22-14-7-6-13(8-15(14)29)19-17-20(23)24-10-25-21(17)28(27-19)9-16-18(26-11-30-16)12-4-2-1-3-5-12/h1-8,10-11,29H,9H2,(H2,23,24,25)

> <PUBCHEM_IUPAC_INCHIKEY>
ICPHLXAHKNXIGM-UHFFFAOYSA-N

> <PUBCHEM_XLOGP3_AA>
3

> <PUBCHEM_EXACT_MASS>
402.12405190

> <PUBCHEM_MOLECULAR_FORMULA>
C21H15FN6O2

> <PUBCHEM_MOLECULAR_WEIGHT>
402.4

> <PUBCHEM_SMILES>
C1=CC=C(C=C1)C2=C(OC=N2)CN3C4=NC=NC(=C4C(=N3)C5=CC(=C(C=C5)F)O)N

> <PUBCHEM_OPENEYE_CAN_SMILES>
C1=CC=C(C=C1)C2=C(OC=N2)CN3C4=NC=NC(=C4C(=N3)C5=CC(=C(C=C5)F)O)N

> <PUBCHEM_OPENEYE_ISO_SMILES>
C1=CC=C(C=C1)C2=C(OC=N2)CN3C4=NC=NC(=C4C(=N3)C5=CC(=C(C=C5)F)O)N

> <PUBCHEM_CACTVS_TPSA>
116

> <PUBCHEM_MONOISOTOPIC_WEIGHT>
402.12405190

> <PUBCHEM_TOTAL_CHARGE>
0

> <PUBCHEM_HEAVY_ATOM_COUNT>
30

> <PUBCHEM_ATOM_DEF_STEREO_COUNT>
0

> <PUBCHEM_ATOM_UDEF_STEREO_COUNT>
0

> <PUBCHEM_BOND_DEF_STEREO_COUNT>
0

> <PUBCHEM_BOND_UDEF_STEREO_COUNT>
0

> <PUBCHEM_ISOTOPIC_ATOM_COUNT>
0

> <PUBCHEM_COMPONENT_COUNT>
1

> <PUBCHEM_CACTVS_TAUTO_COUNT>
-1

> <PUBCHEM_COORDINATE_TYPE>
1
5
255

> <PUBCHEM_BONDANNOTATIONS>
10  12  8
10  13  8
10  16  8
14  17  8
15  19  8
15  20  8
18  25  8
18  26  8
19  22  8
2  14  8
2  24  8
20  23  8
22  27  8
23  27  8
25  28  8
26  29  8
28  30  8
29  30  8
4  12  8
4  5  8
5  13  8
6  12  8
6  21  8
7  16  8
7  21  8
8  17  8
8  24  8

$$$$
