44363906
  -OEChem-03202500192D

 62 70  0     1  0  0  0  0  0999 V2000
    3.4737   -3.7968    0.0000 O   0  0  0  0  0  0  0  0  0  0  0  0
    2.2501   -0.4351    0.0000 O   0  0  0  0  0  0  0  0  0  0  0  0
    7.5253    1.2641    0.0000 N   0  0  0  0  0  0  0  0  0  0  0  0
    6.9273   -1.7005    0.0000 N   0  0  0  0  0  0  0  0  0  0  0  0
    6.2433    0.1789    0.0000 N   0  0  0  0  0  0  0  0  0  0  0  0
    2.5826   -2.2176    0.0000 N   0  0  0  0  0  0  0  0  0  0  0  0
    8.0031   -0.6844    0.0000 C   0  0  1  0  0  0  0  0  0  0  0  0
    8.2619    0.2815    0.0000 C   0  0  2  0  0  0  0  0  0  0  0  0
    9.2748   -1.4791    0.0000 C   0  0  0  0  0  0  0  0  0  0  0  0
    9.6936    0.0838    0.0000 C   0  0  0  0  0  0  0  0  0  0  0  0
    5.9425   -1.5268    0.0000 C   0  0  0  0  0  0  0  0  0  0  0  0
    5.6005   -0.5871    0.0000 C   0  0  0  0  0  0  0  0  0  0  0  0
   10.0519   -0.8497    0.0000 C   0  0  0  0  0  0  0  0  0  0  0  0
    5.2853   -2.3350    0.0000 C   0  0  0  0  0  0  0  0  0  0  0  0
    4.5776   -0.3904    0.0000 C   0  0  0  0  0  0  0  0  0  0  0  0
    6.9003   -2.6939    0.0000 C   0  0  0  0  0  0  0  0  0  0  0  0
    5.5840    0.9226    0.0000 C   0  0  0  0  0  0  0  0  0  0  0  0
    7.0253    2.1302    0.0000 C   0  0  0  0  0  0  0  0  0  0  0  0
    5.9733   -3.0521    0.0000 C   0  0  0  0  0  0  0  0  0  0  0  0
    4.6436    0.6012    0.0000 C   0  0  0  0  0  0  0  0  0  0  0  0
    4.2582   -2.1620    0.0000 C   0  0  0  0  0  0  0  0  0  0  0  0
    3.9019   -1.1832    0.0000 C   0  0  0  0  0  0  0  0  0  0  0  0
    7.7162   -3.3311    0.0000 C   0  0  0  0  0  0  0  0  0  0  0  0
    5.7995    1.9352    0.0000 C   0  0  0  0  0  0  0  0  0  0  0  0
    7.5253    2.9962    0.0000 C   0  0  0  0  0  0  0  0  0  0  0  0
    3.4406   -2.7974    0.0000 C   0  0  0  0  0  0  0  0  0  0  0  0
    2.8672   -1.2220    0.0000 C   0  0  0  0  0  0  0  0  0  0  0  0
    5.7979   -4.0724    0.0000 C   0  0  0  0  0  0  0  0  0  0  0  0
    3.8535    1.2700    0.0000 C   0  0  0  0  0  0  0  0  0  0  0  0
    7.5644   -4.3551    0.0000 C   0  0  0  0  0  0  0  0  0  0  0  0
    5.0250    2.6220    0.0000 C   0  0  0  0  0  0  0  0  0  0  0  0
    6.5988   -4.7282    0.0000 C   0  0  0  0  0  0  0  0  0  0  0  0
    4.0454    2.2872    0.0000 C   0  0  0  0  0  0  0  0  0  0  0  0
    7.0253    3.8622    0.0000 C   0  0  0  0  0  0  0  0  0  0  0  0
    8.5253    2.9962    0.0000 C   0  0  0  0  0  0  0  0  0  0  0  0
    7.5253    4.7282    0.0000 C   0  0  0  0  0  0  0  0  0  0  0  0
    9.0253    3.8622    0.0000 C   0  0  0  0  0  0  0  0  0  0  0  0
    8.5253    4.7282    0.0000 C   0  0  0  0  0  0  0  0  0  0  0  0
    7.7831   -1.5054    0.0000 H   0  0  0  0  0  0  0  0  0  0  0  0
    8.4819    1.1026    0.0000 H   0  0  0  0  0  0  0  0  0  0  0  0
    8.8902   -1.9654    0.0000 H   0  0  0  0  0  0  0  0  0  0  0  0
    9.7157   -1.9149    0.0000 H   0  0  0  0  0  0  0  0  0  0  0  0
   10.3014    0.2062    0.0000 H   0  0  0  0  0  0  0  0  0  0  0  0
    9.6745    0.7036    0.0000 H   0  0  0  0  0  0  0  0  0  0  0  0
   10.3896   -1.3697    0.0000 H   0  0  0  0  0  0  0  0  0  0  0  0
   10.6044   -0.5683    0.0000 H   0  0  0  0  0  0  0  0  0  0  0  0
    6.5504    2.5287    0.0000 H   0  0  0  0  0  0  0  0  0  0  0  0
    6.5504    1.7316    0.0000 H   0  0  0  0  0  0  0  0  0  0  0  0
    8.2919   -3.1009    0.0000 H   0  0  0  0  0  0  0  0  0  0  0  0
    6.3884    2.1289    0.0000 H   0  0  0  0  0  0  0  0  0  0  0  0
    5.2171   -4.2892    0.0000 H   0  0  0  0  0  0  0  0  0  0  0  0
    3.2692    1.0627    0.0000 H   0  0  0  0  0  0  0  0  0  0  0  0
    2.0000   -2.4297    0.0000 H   0  0  0  0  0  0  0  0  0  0  0  0
    8.0486   -4.7423    0.0000 H   0  0  0  0  0  0  0  0  0  0  0  0
    5.1470    3.2299    0.0000 H   0  0  0  0  0  0  0  0  0  0  0  0
    6.5009   -5.3404    0.0000 H   0  0  0  0  0  0  0  0  0  0  0  0
    3.5769    2.6932    0.0000 H   0  0  0  0  0  0  0  0  0  0  0  0
    6.4053    3.8622    0.0000 H   0  0  0  0  0  0  0  0  0  0  0  0
    8.8353    2.4592    0.0000 H   0  0  0  0  0  0  0  0  0  0  0  0
    7.2153    5.2652    0.0000 H   0  0  0  0  0  0  0  0  0  0  0  0
    9.6453    3.8622    0.0000 H   0  0  0  0  0  0  0  0  0  0  0  0
    8.8353    5.2652    0.0000 H   0  0  0  0  0  0  0  0  0  0  0  0
  1 26  2  0  0  0  0
  2 27  2  0  0  0  0
  3  7  1  0  0  0  0
  3  8  1  0  0  0  0
  3 18  1  0  0  0  0
  4  7  1  0  0  0  0
  4 11  1  0  0  0  0
  4 16  1  0  0  0  0
  5  8  1  0  0  0  0
  5 12  1  0  0  0  0
  5 17  1  0  0  0  0
  6 26  1  0  0  0  0
  6 27  1  0  0  0  0
  6 53  1  0  0  0  0
  7  9  1  0  0  0  0
  7 39  1  1  0  0  0
  8 10  1  0  0  0  0
  8 40  1  6  0  0  0
  9 13  1  0  0  0  0
  9 41  1  0  0  0  0
  9 42  1  0  0  0  0
 10 13  1  0  0  0  0
 10 43  1  0  0  0  0
 10 44  1  0  0  0  0
 11 12  2  0  0  0  0
 11 14  1  0  0  0  0
 12 15  1  0  0  0  0
 13 45  1  0  0  0  0
 13 46  1  0  0  0  0
 14 19  1  0  0  0  0
 14 21  2  0  0  0  0
 15 20  1  0  0  0  0
 15 22  2  0  0  0  0
 16 19  1  0  0  0  0
 16 23  2  0  0  0  0
 17 20  1  0  0  0  0
 17 24  2  0  0  0  0
 18 25  1  0  0  0  0
 18 47  1  0  0  0  0
 18 48  1  0  0  0  0
 19 28  2  0  0  0  0
 20 29  2  0  0  0  0
 21 22  1  0  0  0  0
 21 26  1  0  0  0  0
 22 27  1  0  0  0  0
 23 30  1  0  0  0  0
 23 49  1  0  0  0  0
 24 31  1  0  0  0  0
 24 50  1  0  0  0  0
 25 34  2  0  0  0  0
 25 35  1  0  0  0  0
 28 32  1  0  0  0  0
 28 51  1  0  0  0  0
 29 33  1  0  0  0  0
 29 52  1  0  0  0  0
 30 32  2  0  0  0  0
 30 54  1  0  0  0  0
 31 33  2  0  0  0  0
 31 55  1  0  0  0  0
 32 56  1  0  0  0  0
 33 57  1  0  0  0  0
 34 36  1  0  0  0  0
 34 58  1  0  0  0  0
 35 37  2  0  0  0  0
 35 59  1  0  0  0  0
 36 38  2  0  0  0  0
 36 60  1  0  0  0  0
 37 38  1  0  0  0  0
 37 61  1  0  0  0  0
 38 62  1  0  0  0  0
M  END
> <PUBCHEM_COMPOUND_CID>
44363906

> <PUBCHEM_COMPOUND_CANONICALIZED>
1

> <PUBCHEM_CACTVS_COMPLEXITY>
930

> <PUBCHEM_CACTVS_HBOND_ACCEPTOR>
3

> <PUBCHEM_CACTVS_HBOND_DONOR>
1

> <PUBCHEM_CACTVS_ROTATABLE_BOND>
2

> <PUBCHEM_CACTVS_SUBSKEYS>
AAADceB/sAAAAAAAAAAAAAAAAAAAAWLFgAA8YMGCBYAAAFix/gAAHgAQAAAADAjBngQxwPPMEACoAyVyVACCgCQlEiAI2CE4dNiIYPLAlZGUIQhohCLIyScdicCeyAACQAASACCQAASAACQAQAAAAAAAAA==

> <PUBCHEM_IUPAC_OPENEYE_NAME>
(2R,6S)-29-benzyl-1,7,17,29-tetrazaoctacyclo[12.12.2.12,6.07,28.08,13.015,19.020,27.021,26]nonacosa-8,10,12,14,19,21,23,25,27-nonaene-16,18-dione

> <PUBCHEM_IUPAC_CAS_NAME>
(2R,6S)-29-(phenylmethyl)-1,7,17,29-tetrazaoctacyclo[12.12.2.12,6.07,28.08,13.015,19.020,27.021,26]nonacosa-8,10,12,14,19,21,23,25,27-nonaene-16,18-dione

> <PUBCHEM_IUPAC_NAME_MARKUP>
(2<I>R</I>,6<I>S</I>)-29-benzyl-1,7,17,29-tetrazaoctacyclo[12.12.2.1<SUP>2,6</SUP>.0<SUP>7,28</SUP>.0<SUP>8,13</SUP>.0<SUP>15,19</SUP>.0<SUP>20,27</SUP>.0<SUP>21,26</SUP>]nonacosa-8,10,12,14,19,21,23,25,27-nonaene-16,18-dione

> <PUBCHEM_IUPAC_NAME>
(2R,6S)-29-benzyl-1,7,17,29-tetrazaoctacyclo[12.12.2.12,6.07,28.08,13.015,19.020,27.021,26]nonacosa-8,10,12,14,19,21,23,25,27-nonaene-16,18-dione

> <PUBCHEM_IUPAC_SYSTEMATIC_NAME>
(2R,6S)-29-(phenylmethyl)-1,7,17,29-tetrazaoctacyclo[12.12.2.12,6.07,28.08,13.015,19.020,27.021,26]nonacosa-8,10,12,14,19,21,23,25,27-nonaene-16,18-dione

> <PUBCHEM_IUPAC_TRADITIONAL_NAME>
(2R,6S)-29-benzyl-1,7,17,29-tetrazaoctacyclo[12.12.2.12,6.07,28.08,13.015,19.020,27.021,26]nonacosa-8,10,12,14,19,21,23,25,27-nonaene-16,18-quinone

> <PUBCHEM_IUPAC_INCHI>
InChI=1S/C32H24N4O2/c37-31-27-25-19-11-4-6-13-21(19)35-23-15-8-16-24(34(23)17-18-9-2-1-3-10-18)36-22-14-7-5-12-20(22)26(30(36)29(25)35)28(27)32(38)33-31/h1-7,9-14,23-24H,8,15-17H2,(H,33,37,38)/t23-,24+

> <PUBCHEM_IUPAC_INCHIKEY>
STORFWAPAZBRBZ-PSWAGMNNSA-N

> <PUBCHEM_XLOGP3_AA>
5.8

> <PUBCHEM_EXACT_MASS>
496.18992602

> <PUBCHEM_MOLECULAR_FORMULA>
C32H24N4O2

> <PUBCHEM_MOLECULAR_WEIGHT>
496.6

> <PUBCHEM_SMILES>
C1C[C@@H]2N([C@H](C1)N3C4=CC=CC=C4C5=C6C(=C7C8=CC=CC=C8N2C7=C53)C(=O)NC6=O)CC9=CC=CC=C9

> <PUBCHEM_OPENEYE_CAN_SMILES>
C1CC2N(C(C1)N3C4=CC=CC=C4C5=C6C(=C7C8=CC=CC=C8N2C7=C53)C(=O)NC6=O)CC9=CC=CC=C9

> <PUBCHEM_OPENEYE_ISO_SMILES>
C1C[C@@H]2N([C@H](C1)N3C4=CC=CC=C4C5=C6C(=C7C8=CC=CC=C8N2C7=C53)C(=O)NC6=O)CC9=CC=CC=C9

> <PUBCHEM_CACTVS_TPSA>
59.3

> <PUBCHEM_MONOISOTOPIC_WEIGHT>
496.18992602

> <PUBCHEM_TOTAL_CHARGE>
0

> <PUBCHEM_HEAVY_ATOM_COUNT>
38

> <PUBCHEM_ATOM_DEF_STEREO_COUNT>
2

> <PUBCHEM_ATOM_UDEF_STEREO_COUNT>
0

> <PUBCHEM_BOND_DEF_STEREO_COUNT>
0

> <PUBCHEM_BOND_UDEF_STEREO_COUNT>
0

> <PUBCHEM_ISOTOPIC_ATOM_COUNT>
0

> <PUBCHEM_COMPONENT_COUNT>
1

> <PUBCHEM_CACTVS_TAUTO_COUNT>
-1

> <PUBCHEM_COORDINATE_TYPE>
1
5
255

> <PUBCHEM_BONDANNOTATIONS>
11  12  8
11  14  8
12  15  8
14  19  8
14  21  8
15  20  8
15  22  8
16  19  8
16  23  8
17  20  8
17  24  8
19  28  8
20  29  8
21  22  8
23  30  8
24  31  8
25  34  8
25  35  8
28  32  8
29  33  8
30  32  8
31  33  8
34  36  8
35  37  8
36  38  8
37  38  8
4  11  8
4  16  8
5  12  8
5  17  8
7  39  5
8  40  6

$$$$
