5287736
  -OEChem-03202507112D

 66 69  0     1  0  0  0  0  0999 V2000
    4.3802   -1.5689    0.0000 O   0  0  0  0  0  0  0  0  0  0  0  0
    5.1906   -4.9838    0.0000 O   0  0  0  0  0  0  0  0  0  0  0  0
    3.0261   -0.4890    0.0000 O   0  0  0  0  0  0  0  0  0  0  0  0
    7.2396    0.6275    0.0000 O   0  0  0  0  0  0  0  0  0  0  0  0
    4.5312    2.7873    0.0000 O   0  0  0  0  0  0  0  0  0  0  0  0
    9.6906   -4.1178    0.0000 O   0  0  0  0  0  0  0  0  0  0  0  0
    7.4977    2.3402    0.0000 O   0  0  0  0  0  0  0  0  0  0  0  0
    5.7782    4.3510    0.0000 O   0  0  0  0  0  0  0  0  0  0  0  0
    9.4754    2.0421    0.0000 O   0  0  0  0  0  0  0  0  0  0  0  0
    7.8630    1.4093    0.0000 O   0  0  0  0  0  0  0  0  0  0  0  0
    2.7818   -4.3752    0.0000 N   0  0  0  0  0  0  0  0  0  0  0  0
    5.1906   -3.2517    0.0000 N   0  0  0  0  0  0  0  0  0  0  0  0
    4.1906   -3.2517    0.0000 C   0  0  1  0  0  0  0  0  0  0  0  0
    3.7568   -2.3508    0.0000 C   0  0  1  0  0  0  0  0  0  0  0  0
    2.7818   -2.1282    0.0000 C   0  0  0  0  0  0  0  0  0  0  0  0
    3.7568   -4.1527    0.0000 C   0  0  0  0  0  0  0  0  0  0  0  0
    2.0000   -2.7517    0.0000 C   0  0  0  0  0  0  0  0  0  0  0  0
    2.0000   -3.7517    0.0000 C   0  0  0  0  0  0  0  0  0  0  0  0
    5.6906   -4.1178    0.0000 C   0  0  0  0  0  0  0  0  0  0  0  0
    4.0149   -0.6381    0.0000 C   0  0  0  0  0  0  0  0  0  0  0  0
    6.6906   -4.1178    0.0000 C   0  0  0  0  0  0  0  0  0  0  0  0
    4.6384    0.1438    0.0000 C   0  0  0  0  0  0  0  0  0  0  0  0
    4.2731    1.0746    0.0000 C   0  0  0  0  0  0  0  0  0  0  0  0
    5.6272   -0.0053    0.0000 C   0  0  0  0  0  0  0  0  0  0  0  0
    7.1906   -3.2517    0.0000 C   0  0  0  0  0  0  0  0  0  0  0  0
    7.1906   -4.9838    0.0000 C   0  0  0  0  0  0  0  0  0  0  0  0
    6.2507    0.7766    0.0000 C   0  0  0  0  0  0  0  0  0  0  0  0
    4.8966    1.8565    0.0000 C   0  0  0  0  0  0  0  0  0  0  0  0
    5.8854    1.7074    0.0000 C   0  0  0  0  0  0  0  0  0  0  0  0
    8.1906   -3.2517    0.0000 C   0  0  0  0  0  0  0  0  0  0  0  0
    8.1906   -4.9838    0.0000 C   0  0  0  0  0  0  0  0  0  0  0  0
    8.6906   -4.1178    0.0000 C   0  0  0  0  0  0  0  0  0  0  0  0
    6.5089    2.4893    0.0000 C   0  0  0  0  0  0  0  0  0  0  0  0
    7.1324    3.2711    0.0000 C   0  0  0  0  0  0  0  0  0  0  0  0
    8.1212    3.1221    0.0000 C   0  0  0  0  0  0  0  0  0  0  0  0
    6.7670    4.2020    0.0000 C   0  0  0  0  0  0  0  0  0  0  0  0
    8.7447    3.9039    0.0000 C   0  0  0  0  0  0  0  0  0  0  0  0
    7.3905    4.9838    0.0000 C   0  0  0  0  0  0  0  0  0  0  0  0
    8.3793    4.8348    0.0000 C   0  0  0  0  0  0  0  0  0  0  0  0
    8.4865    2.1912    0.0000 C   0  0  0  0  0  0  0  0  0  0  0  0
    4.5205   -3.7767    0.0000 H   0  0  0  0  0  0  0  0  0  0  0  0
    3.5520   -1.7656    0.0000 H   0  0  0  0  0  0  0  0  0  0  0  0
    3.0508   -1.5696    0.0000 H   0  0  0  0  0  0  0  0  0  0  0  0
    2.2971   -1.7417    0.0000 H   0  0  0  0  0  0  0  0  0  0  0  0
    3.7568   -4.7727    0.0000 H   0  0  0  0  0  0  0  0  0  0  0  0
    4.3612   -4.2907    0.0000 H   0  0  0  0  0  0  0  0  0  0  0  0
    1.7310   -2.1931    0.0000 H   0  0  0  0  0  0  0  0  0  0  0  0
    1.3955   -2.8897    0.0000 H   0  0  0  0  0  0  0  0  0  0  0  0
    1.3955   -3.6138    0.0000 H   0  0  0  0  0  0  0  0  0  0  0  0
    1.7310   -4.3103    0.0000 H   0  0  0  0  0  0  0  0  0  0  0  0
    2.6439   -4.9797    0.0000 H   0  0  0  0  0  0  0  0  0  0  0  0
    5.5006   -2.7148    0.0000 H   0  0  0  0  0  0  0  0  0  0  0  0
    3.6600    1.1670    0.0000 H   0  0  0  0  0  0  0  0  0  0  0  0
    5.8537   -0.5824    0.0000 H   0  0  0  0  0  0  0  0  0  0  0  0
    6.8806   -2.7148    0.0000 H   0  0  0  0  0  0  0  0  0  0  0  0
    6.8806   -5.5207    0.0000 H   0  0  0  0  0  0  0  0  0  0  0  0
    8.5006   -2.7148    0.0000 H   0  0  0  0  0  0  0  0  0  0  0  0
    8.5006   -5.5207    0.0000 H   0  0  0  0  0  0  0  0  0  0  0  0
    7.4661    0.0504    0.0000 H   0  0  0  0  0  0  0  0  0  0  0  0
    4.9178    3.2721    0.0000 H   0  0  0  0  0  0  0  0  0  0  0  0
    9.3578    3.8115    0.0000 H   0  0  0  0  0  0  0  0  0  0  0  0
    7.1640    5.5609    0.0000 H   0  0  0  0  0  0  0  0  0  0  0  0
   10.0006   -4.6547    0.0000 H   0  0  0  0  0  0  0  0  0  0  0  0
    8.7659    5.3195    0.0000 H   0  0  0  0  0  0  0  0  0  0  0  0
    5.5517    4.9281    0.0000 H   0  0  0  0  0  0  0  0  0  0  0  0
    9.7019    1.4650    0.0000 H   0  0  0  0  0  0  0  0  0  0  0  0
 14  1  1  1  0  0  0
  1 20  1  0  0  0  0
  2 19  2  0  0  0  0
  3 20  2  0  0  0  0
  4 27  1  0  0  0  0
  4 59  1  0  0  0  0
  5 28  1  0  0  0  0
  5 60  1  0  0  0  0
  6 32  1  0  0  0  0
  6 63  1  0  0  0  0
  7 33  2  0  0  0  0
  8 36  1  0  0  0  0
  8 65  1  0  0  0  0
  9 40  1  0  0  0  0
  9 66  1  0  0  0  0
 10 40  2  0  0  0  0
 11 16  1  0  0  0  0
 11 18  1  0  0  0  0
 11 51  1  0  0  0  0
 13 12  1  6  0  0  0
 12 19  1  0  0  0  0
 12 52  1  0  0  0  0
 13 14  1  0  0  0  0
 13 16  1  0  0  0  0
 13 41  1  0  0  0  0
 14 15  1  0  0  0  0
 14 42  1  0  0  0  0
 15 17  1  0  0  0  0
 15 43  1  0  0  0  0
 15 44  1  0  0  0  0
 16 45  1  0  0  0  0
 16 46  1  0  0  0  0
 17 18  1  0  0  0  0
 17 47  1  0  0  0  0
 17 48  1  0  0  0  0
 18 49  1  0  0  0  0
 18 50  1  0  0  0  0
 19 21  1  0  0  0  0
 20 22  1  0  0  0  0
 21 25  2  0  0  0  0
 21 26  1  0  0  0  0
 22 23  2  0  0  0  0
 22 24  1  0  0  0  0
 23 28  1  0  0  0  0
 23 53  1  0  0  0  0
 24 27  2  0  0  0  0
 24 54  1  0  0  0  0
 25 30  1  0  0  0  0
 25 55  1  0  0  0  0
 26 31  2  0  0  0  0
 26 56  1  0  0  0  0
 27 29  1  0  0  0  0
 28 29  2  0  0  0  0
 29 33  1  0  0  0  0
 30 32  2  0  0  0  0
 30 57  1  0  0  0  0
 31 32  1  0  0  0  0
 31 58  1  0  0  0  0
 33 34  1  0  0  0  0
 34 35  2  0  0  0  0
 34 36  1  0  0  0  0
 35 37  1  0  0  0  0
 35 40  1  0  0  0  0
 36 38  2  0  0  0  0
 37 39  2  0  0  0  0
 37 61  1  0  0  0  0
 38 39  1  0  0  0  0
 38 62  1  0  0  0  0
 39 64  1  0  0  0  0
M  END
> <PUBCHEM_COMPOUND_CID>
5287736

> <PUBCHEM_COMPOUND_CANONICALIZED>
1

> <PUBCHEM_CACTVS_COMPLEXITY>
911

> <PUBCHEM_CACTVS_HBOND_ACCEPTOR>
11

> <PUBCHEM_CACTVS_HBOND_DONOR>
7

> <PUBCHEM_CACTVS_ROTATABLE_BOND>
8

> <PUBCHEM_CACTVS_SUBSKEYS>
AAADceB7PAAAAAAAAAAAAAAAAAAAAAAAAAAwYMAABYAAAAABUAAAHgAQCAAADDzhmAYwDoLABgCIAqHSGACCAAAkIAAIiIEODMgKZzaCtRuXcUhn9hWYuYf7/PbO4AABCAAYAADAAAIQADAAAAAAAAAAAA==

> <PUBCHEM_IUPAC_OPENEYE_NAME>
2-[2,6-dihydroxy-4-[(3R,4R)-3-[(4-hydroxybenzoyl)amino]azepan-4-yl]oxycarbonyl-benzoyl]-3-hydroxy-benzoic acid

> <PUBCHEM_IUPAC_CAS_NAME>
2-[[2,6-dihydroxy-4-[[(3R,4R)-3-[[(4-hydroxyphenyl)-oxomethyl]amino]-4-azepanyl]oxy-oxomethyl]phenyl]-oxomethyl]-3-hydroxybenzoic acid

> <PUBCHEM_IUPAC_NAME_MARKUP>
2-[2,6-dihydroxy-4-[(3<I>R</I>,4<I>R</I>)-3-[(4-hydroxybenzoyl)amino]azepan-4-yl]oxycarbonylbenzoyl]-3-hydroxybenzoic acid

> <PUBCHEM_IUPAC_NAME>
2-[2,6-dihydroxy-4-[(3R,4R)-3-[(4-hydroxybenzoyl)amino]azepan-4-yl]oxycarbonylbenzoyl]-3-hydroxybenzoic acid

> <PUBCHEM_IUPAC_SYSTEMATIC_NAME>
2-[4-[(3R,4R)-3-[(4-hydroxyphenyl)carbonylamino]azepan-4-yl]oxycarbonyl-2,6-bis(oxidanyl)phenyl]carbonyl-3-oxidanyl-benzoic acid

> <PUBCHEM_IUPAC_TRADITIONAL_NAME>
2-[2,6-dihydroxy-4-[(3R,4R)-3-[(4-hydroxybenzoyl)amino]azepan-4-yl]oxycarbonyl-benzoyl]-3-hydroxy-benzoic acid

> <PUBCHEM_IUPAC_INCHI>
InChI=1S/C28H26N2O10/c31-16-8-6-14(7-9-16)26(36)30-18-13-29-10-2-5-22(18)40-28(39)15-11-20(33)24(21(34)12-15)25(35)23-17(27(37)38)3-1-4-19(23)32/h1,3-4,6-9,11-12,18,22,29,31-34H,2,5,10,13H2,(H,30,36)(H,37,38)/t18-,22-/m1/s1

> <PUBCHEM_IUPAC_INCHIKEY>
XYUFCXJZFZPEJD-XMSQKQJNSA-N

> <PUBCHEM_XLOGP3_AA>
0.7

> <PUBCHEM_EXACT_MASS>
550.15874503

> <PUBCHEM_MOLECULAR_FORMULA>
C28H26N2O10

> <PUBCHEM_MOLECULAR_WEIGHT>
550.5

> <PUBCHEM_SMILES>
C1C[C@H]([C@@H](CNC1)NC(=O)C2=CC=C(C=C2)O)OC(=O)C3=CC(=C(C(=C3)O)C(=O)C4=C(C=CC=C4O)C(=O)O)O

> <PUBCHEM_OPENEYE_CAN_SMILES>
C1CC(C(CNC1)NC(=O)C2=CC=C(C=C2)O)OC(=O)C3=CC(=C(C(=C3)O)C(=O)C4=C(C=CC=C4O)C(=O)O)O

> <PUBCHEM_OPENEYE_ISO_SMILES>
C1C[C@H]([C@@H](CNC1)NC(=O)C2=CC=C(C=C2)O)OC(=O)C3=CC(=C(C(=C3)O)C(=O)C4=C(C=CC=C4O)C(=O)O)O

> <PUBCHEM_CACTVS_TPSA>
203

> <PUBCHEM_MONOISOTOPIC_WEIGHT>
550.15874503

> <PUBCHEM_TOTAL_CHARGE>
0

> <PUBCHEM_HEAVY_ATOM_COUNT>
40

> <PUBCHEM_ATOM_DEF_STEREO_COUNT>
2

> <PUBCHEM_ATOM_UDEF_STEREO_COUNT>
0

> <PUBCHEM_BOND_DEF_STEREO_COUNT>
0

> <PUBCHEM_BOND_UDEF_STEREO_COUNT>
0

> <PUBCHEM_ISOTOPIC_ATOM_COUNT>
0

> <PUBCHEM_COMPONENT_COUNT>
1

> <PUBCHEM_CACTVS_TAUTO_COUNT>
-1

> <PUBCHEM_COORDINATE_TYPE>
1
5
255

> <PUBCHEM_BONDANNOTATIONS>
14  1  5
13  12  6
21  25  8
21  26  8
22  23  8
22  24  8
23  28  8
24  27  8
25  30  8
26  31  8
27  29  8
28  29  8
30  32  8
31  32  8
34  35  8
34  36  8
35  37  8
36  38  8
37  39  8
38  39  8

$$$$
