45270357
  -OEChem-03202506592D

 42 45  0     0  0  0  0  0  0999 V2000
    3.4632   -0.8123    0.0000 O   0  0  0  0  0  0  0  0  0  0  0  0
    5.8169    3.5378    0.0000 O   0  0  0  0  0  0  0  0  0  0  0  0
    8.5425   -2.8548    0.0000 O   0  0  0  0  0  0  0  0  0  0  0  0
   10.4559   -2.2727    0.0000 O   0  0  0  0  0  0  0  0  0  0  0  0
    4.8830    0.4462    0.0000 N   0  0  0  0  0  0  0  0  0  0  0  0
    4.3830    2.6369    0.0000 N   0  0  0  0  0  0  0  0  0  0  0  0
    5.7840    0.8801    0.0000 C   0  0  0  0  0  0  0  0  0  0  0  0
    6.0065    1.8550    0.0000 C   0  0  0  0  0  0  0  0  0  0  0  0
    7.5342    0.4593    0.0000 C   0  0  0  0  0  0  0  0  0  0  0  0
    3.9820    0.8801    0.0000 C   0  0  0  0  0  0  0  0  0  0  0  0
    6.5365    0.1599    0.0000 C   0  0  0  0  0  0  0  0  0  0  0  0
    3.7595    1.8551    0.0000 C   0  0  0  0  0  0  0  0  0  0  0  0
    6.9970    2.1774    0.0000 C   0  0  0  0  0  0  0  0  0  0  0  0
    8.2646   -0.2237    0.0000 C   0  0  0  0  0  0  0  0  0  0  0  0
    5.3830    2.6369    0.0000 C   0  0  0  0  0  0  0  0  0  0  0  0
    7.7660    1.4748    0.0000 C   0  0  0  0  0  0  0  0  0  0  0  0
    3.2295    0.1600    0.0000 C   0  0  0  0  0  0  0  0  0  0  0  0
    2.7690    2.1774    0.0000 C   0  0  0  0  0  0  0  0  0  0  0  0
    8.0383   -1.1978    0.0000 C   0  0  0  0  0  0  0  0  0  0  0  0
    9.2213    0.0673    0.0000 C   0  0  0  0  0  0  0  0  0  0  0  0
    2.2318    0.4593    0.0000 C   0  0  0  0  0  0  0  0  0  0  0  0
    2.0000    1.4748    0.0000 C   0  0  0  0  0  0  0  0  0  0  0  0
    8.7688   -1.8808    0.0000 C   0  0  0  0  0  0  0  0  0  0  0  0
    9.9518   -0.6157    0.0000 C   0  0  0  0  0  0  0  0  0  0  0  0
    9.7255   -1.5897    0.0000 C   0  0  0  0  0  0  0  0  0  0  0  0
    9.2729   -3.5378    0.0000 C   0  0  0  0  0  0  0  0  0  0  0  0
    6.3916   -0.4429    0.0000 H   0  0  0  0  0  0  0  0  0  0  0  0
    4.8830   -0.1738    0.0000 H   0  0  0  0  0  0  0  0  0  0  0  0
    7.1280    2.7834    0.0000 H   0  0  0  0  0  0  0  0  0  0  0  0
    8.3578    1.6598    0.0000 H   0  0  0  0  0  0  0  0  0  0  0  0
    4.1140    3.1955    0.0000 H   0  0  0  0  0  0  0  0  0  0  0  0
    2.6380    2.7834    0.0000 H   0  0  0  0  0  0  0  0  0  0  0  0
    7.4452   -1.3782    0.0000 H   0  0  0  0  0  0  0  0  0  0  0  0
    9.3616    0.6713    0.0000 H   0  0  0  0  0  0  0  0  0  0  0  0
    1.7789    0.0359    0.0000 H   0  0  0  0  0  0  0  0  0  0  0  0
    1.4083    1.6599    0.0000 H   0  0  0  0  0  0  0  0  0  0  0  0
   10.5449   -0.4352    0.0000 H   0  0  0  0  0  0  0  0  0  0  0  0
    3.0136   -1.2393    0.0000 H   0  0  0  0  0  0  0  0  0  0  0  0
   11.0490   -2.0923    0.0000 H   0  0  0  0  0  0  0  0  0  0  0  0
    8.8494   -3.9907    0.0000 H   0  0  0  0  0  0  0  0  0  0  0  0
    9.7258   -3.9613    0.0000 H   0  0  0  0  0  0  0  0  0  0  0  0
    9.6964   -3.0850    0.0000 H   0  0  0  0  0  0  0  0  0  0  0  0
  1 17  1  0  0  0  0
  1 38  1  0  0  0  0
  2 15  2  0  0  0  0
  3 23  1  0  0  0  0
  3 26  1  0  0  0  0
  4 25  1  0  0  0  0
  4 39  1  0  0  0  0
  5  7  1  0  0  0  0
  5 10  1  0  0  0  0
  5 28  1  0  0  0  0
  6 12  1  0  0  0  0
  6 15  1  0  0  0  0
  6 31  1  0  0  0  0
  7  8  2  0  0  0  0
  7 11  1  0  0  0  0
  8 13  1  0  0  0  0
  8 15  1  0  0  0  0
  9 11  2  0  0  0  0
  9 14  1  0  0  0  0
  9 16  1  0  0  0  0
 10 12  2  0  0  0  0
 10 17  1  0  0  0  0
 11 27  1  0  0  0  0
 12 18  1  0  0  0  0
 13 16  2  0  0  0  0
 13 29  1  0  0  0  0
 14 19  2  0  0  0  0
 14 20  1  0  0  0  0
 16 30  1  0  0  0  0
 17 21  2  0  0  0  0
 18 22  2  0  0  0  0
 18 32  1  0  0  0  0
 19 23  1  0  0  0  0
 19 33  1  0  0  0  0
 20 24  2  0  0  0  0
 20 34  1  0  0  0  0
 21 22  1  0  0  0  0
 21 35  1  0  0  0  0
 22 36  1  0  0  0  0
 23 25  2  0  0  0  0
 24 25  1  0  0  0  0
 24 37  1  0  0  0  0
 26 40  1  0  0  0  0
 26 41  1  0  0  0  0
 26 42  1  0  0  0  0
M  END
> <PUBCHEM_COMPOUND_CID>
45270357

> <PUBCHEM_COMPOUND_CANONICALIZED>
1

> <PUBCHEM_CACTVS_COMPLEXITY>
516

> <PUBCHEM_CACTVS_HBOND_ACCEPTOR>
5

> <PUBCHEM_CACTVS_HBOND_DONOR>
4

> <PUBCHEM_CACTVS_ROTATABLE_BOND>
2

> <PUBCHEM_CACTVS_SUBSKEYS>
AAADceB7OAAAAAAAAAAAAAAAAAAAAAAAAAAwYMAABYAAAAABUAAAHgAQCAAADAyBmAIyxoLABgCIAiVSUACCCAAlIgAIiAEH/MgPZnrW9ZuUcatm1Bnb+ceY2POO4AABQgACUCDAAAKEAASgQAAAAAAAAA==

> <PUBCHEM_IUPAC_OPENEYE_NAME>
1-hydroxy-9-(4-hydroxy-3-methoxy-phenyl)-5,11-dihydrobenzo[b][1,4]benzodiazepin-6-one

> <PUBCHEM_IUPAC_CAS_NAME>
1-hydroxy-9-(4-hydroxy-3-methoxyphenyl)-5,11-dihydrobenzo[b][1,4]benzodiazepin-6-one

> <PUBCHEM_IUPAC_NAME_MARKUP>
1-hydroxy-9-(4-hydroxy-3-methoxyphenyl)-5,11-dihydrobenzo[b][1,4]benzodiazepin-6-one

> <PUBCHEM_IUPAC_NAME>
1-hydroxy-9-(4-hydroxy-3-methoxyphenyl)-5,11-dihydrobenzo[b][1,4]benzodiazepin-6-one

> <PUBCHEM_IUPAC_SYSTEMATIC_NAME>
9-(3-methoxy-4-oxidanyl-phenyl)-1-oxidanyl-5,11-dihydrobenzo[b][1,4]benzodiazepin-6-one

> <PUBCHEM_IUPAC_TRADITIONAL_NAME>
1-hydroxy-9-(4-hydroxy-3-methoxy-phenyl)-5,11-dihydrobenzo[b][1,4]benzodiazepin-6-one

> <PUBCHEM_IUPAC_INCHI>
InChI=1S/C20H16N2O4/c1-26-18-10-12(6-8-16(18)23)11-5-7-13-15(9-11)21-19-14(22-20(13)25)3-2-4-17(19)24/h2-10,21,23-24H,1H3,(H,22,25)

> <PUBCHEM_IUPAC_INCHIKEY>
KDJGCVHPUMHUOL-UHFFFAOYSA-N

> <PUBCHEM_XLOGP3_AA>
3.3

> <PUBCHEM_EXACT_MASS>
348.11100700

> <PUBCHEM_MOLECULAR_FORMULA>
C20H16N2O4

> <PUBCHEM_MOLECULAR_WEIGHT>
348.4

> <PUBCHEM_SMILES>
COC1=C(C=CC(=C1)C2=CC3=C(C=C2)C(=O)NC4=C(N3)C(=CC=C4)O)O

> <PUBCHEM_OPENEYE_CAN_SMILES>
COC1=C(C=CC(=C1)C2=CC3=C(C=C2)C(=O)NC4=C(N3)C(=CC=C4)O)O

> <PUBCHEM_OPENEYE_ISO_SMILES>
COC1=C(C=CC(=C1)C2=CC3=C(C=C2)C(=O)NC4=C(N3)C(=CC=C4)O)O

> <PUBCHEM_CACTVS_TPSA>
90.8

> <PUBCHEM_MONOISOTOPIC_WEIGHT>
348.11100700

> <PUBCHEM_TOTAL_CHARGE>
0

> <PUBCHEM_HEAVY_ATOM_COUNT>
26

> <PUBCHEM_ATOM_DEF_STEREO_COUNT>
0

> <PUBCHEM_ATOM_UDEF_STEREO_COUNT>
0

> <PUBCHEM_BOND_DEF_STEREO_COUNT>
0

> <PUBCHEM_BOND_UDEF_STEREO_COUNT>
0

> <PUBCHEM_ISOTOPIC_ATOM_COUNT>
0

> <PUBCHEM_COMPONENT_COUNT>
1

> <PUBCHEM_CACTVS_TAUTO_COUNT>
-1

> <PUBCHEM_COORDINATE_TYPE>
1
5
255

> <PUBCHEM_BONDANNOTATIONS>
10  12  8
10  17  8
12  18  8
13  16  8
14  19  8
14  20  8
17  21  8
18  22  8
19  23  8
20  24  8
21  22  8
23  25  8
24  25  8
7  11  8
7  8  8
8  13  8
9  11  8
9  16  8

$$$$
