49830321
  -OEChem-03202501072D

 37 39  0     0  0  0  0  0  0999 V2000
    7.2566    1.0994    0.0000 N   0  0  0  0  0  0  0  0  0  0  0  0
    4.6783   -2.8236    0.0000 N   0  0  0  0  0  0  0  0  0  0  0  0
    4.3211    0.4807    0.0000 N   0  0  0  0  0  0  0  0  0  0  0  0
    2.8660   -3.0188    0.0000 N   0  0  0  0  0  0  0  0  0  0  0  0
    5.6103    1.6375    0.0000 N   0  0  0  0  0  0  0  0  0  0  0  0
    8.5458    2.2561    0.0000 C   0  0  0  0  0  0  0  0  0  0  0  0
    7.5673    2.0499    0.0000 C   0  0  0  0  0  0  0  0  0  0  0  0
    4.6783   -1.2141    0.0000 C   0  0  0  0  0  0  0  0  0  0  0  0
    8.8564    3.2066    0.0000 C   0  0  0  0  0  0  0  0  0  0  0  0
    3.7320   -1.5188    0.0000 C   0  0  0  0  0  0  0  0  0  0  0  0
    4.9889   -0.2636    0.0000 C   0  0  0  0  0  0  0  0  0  0  0  0
    3.7320   -2.5188    0.0000 C   0  0  0  0  0  0  0  0  0  0  0  0
    6.2781    0.8932    0.0000 C   0  0  0  0  0  0  0  0  0  0  0  0
    5.2619   -2.0188    0.0000 C   0  0  0  0  0  0  0  0  0  0  0  0
    5.9674   -0.0573    0.0000 C   0  0  0  0  0  0  0  0  0  0  0  0
    9.8349    3.4129    0.0000 C   0  0  0  0  0  0  0  0  0  0  0  0
    2.8660   -1.0188    0.0000 C   0  0  0  0  0  0  0  0  0  0  0  0
    2.0000   -1.5188    0.0000 C   0  0  0  0  0  0  0  0  0  0  0  0
    2.0000   -2.5188    0.0000 C   0  0  0  0  0  0  0  0  0  0  0  0
    4.6318    1.4313    0.0000 C   0  0  0  0  0  0  0  0  0  0  0  0
    8.5663    1.6365    0.0000 H   0  0  0  0  0  0  0  0  0  0  0  0
    9.1596    2.1688    0.0000 H   0  0  0  0  0  0  0  0  0  0  0  0
    7.5467    2.6696    0.0000 H   0  0  0  0  0  0  0  0  0  0  0  0
    6.9534    2.1373    0.0000 H   0  0  0  0  0  0  0  0  0  0  0  0
    8.8359    3.8263    0.0000 H   0  0  0  0  0  0  0  0  0  0  0  0
    8.2426    3.2940    0.0000 H   0  0  0  0  0  0  0  0  0  0  0  0
    7.6707    0.6379    0.0000 H   0  0  0  0  0  0  0  0  0  0  0  0
    5.8819   -2.0188    0.0000 H   0  0  0  0  0  0  0  0  0  0  0  0
    6.3815   -0.5188    0.0000 H   0  0  0  0  0  0  0  0  0  0  0  0
    4.8709   -3.4129    0.0000 H   0  0  0  0  0  0  0  0  0  0  0  0
    9.9628    2.8062    0.0000 H   0  0  0  0  0  0  0  0  0  0  0  0
   10.4416    3.5407    0.0000 H   0  0  0  0  0  0  0  0  0  0  0  0
    9.7071    4.0196    0.0000 H   0  0  0  0  0  0  0  0  0  0  0  0
    2.8660   -0.3988    0.0000 H   0  0  0  0  0  0  0  0  0  0  0  0
    1.4631   -1.2088    0.0000 H   0  0  0  0  0  0  0  0  0  0  0  0
    1.4631   -2.8288    0.0000 H   0  0  0  0  0  0  0  0  0  0  0  0
    4.2177    1.8927    0.0000 H   0  0  0  0  0  0  0  0  0  0  0  0
  1  7  1  0  0  0  0
  1 13  1  0  0  0  0
  1 27  1  0  0  0  0
  2 12  1  0  0  0  0
  2 14  1  0  0  0  0
  2 30  1  0  0  0  0
  3 11  1  0  0  0  0
  3 20  2  0  0  0  0
  4 12  1  0  0  0  0
  4 19  2  0  0  0  0
  5 13  2  0  0  0  0
  5 20  1  0  0  0  0
  6  7  1  0  0  0  0
  6  9  1  0  0  0  0
  6 21  1  0  0  0  0
  6 22  1  0  0  0  0
  7 23  1  0  0  0  0
  7 24  1  0  0  0  0
  8 10  1  0  0  0  0
  8 11  1  0  0  0  0
  8 14  2  0  0  0  0
  9 16  1  0  0  0  0
  9 25  1  0  0  0  0
  9 26  1  0  0  0  0
 10 12  2  0  0  0  0
 10 17  1  0  0  0  0
 11 15  2  0  0  0  0
 13 15  1  0  0  0  0
 14 28  1  0  0  0  0
 15 29  1  0  0  0  0
 16 31  1  0  0  0  0
 16 32  1  0  0  0  0
 16 33  1  0  0  0  0
 17 18  2  0  0  0  0
 17 34  1  0  0  0  0
 18 19  1  0  0  0  0
 18 35  1  0  0  0  0
 19 36  1  0  0  0  0
 20 37  1  0  0  0  0
M  END
> <PUBCHEM_COMPOUND_CID>
49830321

> <PUBCHEM_COMPOUND_CANONICALIZED>
1

> <PUBCHEM_CACTVS_COMPLEXITY>
298

> <PUBCHEM_CACTVS_HBOND_ACCEPTOR>
4

> <PUBCHEM_CACTVS_HBOND_DONOR>
2

> <PUBCHEM_CACTVS_ROTATABLE_BOND>
5

> <PUBCHEM_CACTVS_SUBSKEYS>
AAADceBzgAAAAAAAAAAAAAAAAAAAAWAAAAAsWAAAAAAAAFgB/gAAHAAQAAAADAjBHwQ/sN7JkACgAzZnZACCgCmxAqAJ2aA4ZJiIKOLA2dGEJAhokALIyCcQgIAOgAAAAAAAAAAAAAAAAAAAAAAAAAAAAA==

> <PUBCHEM_IUPAC_OPENEYE_NAME>
N-butyl-6-(1H-pyrrolo[2,3-b]pyridin-3-yl)pyrimidin-4-amine

> <PUBCHEM_IUPAC_CAS_NAME>
N-butyl-6-(1H-pyrrolo[2,3-b]pyridin-3-yl)-4-pyrimidinamine

> <PUBCHEM_IUPAC_NAME_MARKUP>
<I>N</I>-butyl-6-(1<I>H</I>-pyrrolo[2,3-b]pyridin-3-yl)pyrimidin-4-amine

> <PUBCHEM_IUPAC_NAME>
N-butyl-6-(1H-pyrrolo[2,3-b]pyridin-3-yl)pyrimidin-4-amine

> <PUBCHEM_IUPAC_SYSTEMATIC_NAME>
N-butyl-6-(1H-pyrrolo[2,3-b]pyridin-3-yl)pyrimidin-4-amine

> <PUBCHEM_IUPAC_TRADITIONAL_NAME>
butyl-[6-(1H-pyrrolo[2,3-b]pyridin-3-yl)pyrimidin-4-yl]amine

> <PUBCHEM_IUPAC_INCHI>
InChI=1S/C15H17N5/c1-2-3-6-16-14-8-13(19-10-20-14)12-9-18-15-11(12)5-4-7-17-15/h4-5,7-10H,2-3,6H2,1H3,(H,17,18)(H,16,19,20)

> <PUBCHEM_IUPAC_INCHIKEY>
YJBNTRQKJQHMTM-UHFFFAOYSA-N

> <PUBCHEM_XLOGP3_AA>
2.8

> <PUBCHEM_EXACT_MASS>
267.14839556

> <PUBCHEM_MOLECULAR_FORMULA>
C15H17N5

> <PUBCHEM_MOLECULAR_WEIGHT>
267.33

> <PUBCHEM_SMILES>
CCCCNC1=NC=NC(=C1)C2=CNC3=C2C=CC=N3

> <PUBCHEM_OPENEYE_CAN_SMILES>
CCCCNC1=NC=NC(=C1)C2=CNC3=C2C=CC=N3

> <PUBCHEM_OPENEYE_ISO_SMILES>
CCCCNC1=NC=NC(=C1)C2=CNC3=C2C=CC=N3

> <PUBCHEM_CACTVS_TPSA>
66.5

> <PUBCHEM_MONOISOTOPIC_WEIGHT>
267.14839556

> <PUBCHEM_TOTAL_CHARGE>
0

> <PUBCHEM_HEAVY_ATOM_COUNT>
20

> <PUBCHEM_ATOM_DEF_STEREO_COUNT>
0

> <PUBCHEM_ATOM_UDEF_STEREO_COUNT>
0

> <PUBCHEM_BOND_DEF_STEREO_COUNT>
0

> <PUBCHEM_BOND_UDEF_STEREO_COUNT>
0

> <PUBCHEM_ISOTOPIC_ATOM_COUNT>
0

> <PUBCHEM_COMPONENT_COUNT>
1

> <PUBCHEM_CACTVS_TAUTO_COUNT>
-1

> <PUBCHEM_COORDINATE_TYPE>
1
5
255

> <PUBCHEM_BONDANNOTATIONS>
10  12  8
10  17  8
11  15  8
13  15  8
17  18  8
18  19  8
2  12  8
2  14  8
3  11  8
3  20  8
4  12  8
4  19  8
5  13  8
5  20  8
8  10  8
8  14  8

$$$$
