11856995
  -OEChem-03202501362D

 50 53  0     0  0  0  0  0  0999 V2000
    2.0000    5.5000    0.0000 F   0  0  0  0  0  0  0  0  0  0  0  0
    3.0000    6.5000    0.0000 F   0  0  0  0  0  0  0  0  0  0  0  0
    4.0000    5.5000    0.0000 F   0  0  0  0  0  0  0  0  0  0  0  0
    9.1424   -4.8047    0.0000 O   0  0  0  0  0  0  0  0  0  0  0  0
    7.3301   -6.0000    0.0000 O   0  0  0  0  0  0  0  0  0  0  0  0
    5.5981    1.0000    0.0000 O   0  0  0  0  0  0  0  0  0  0  0  0
    3.0000    4.5000    0.0000 O   0  0  0  0  0  0  0  0  0  0  0  0
    9.7260   -4.0000    0.0000 N   0  0  0  0  0  0  0  0  0  0  0  0
    7.3301    1.0000    0.0000 N   0  0  0  0  0  0  0  0  0  0  0  0
    9.4530   -2.2447    0.0000 N   0  0  0  0  0  0  0  0  0  0  0  0
    6.4641    2.5000    0.0000 N   0  0  0  0  0  0  0  0  0  0  0  0
    7.3301   -3.0000    0.0000 C   0  0  0  0  0  0  0  0  0  0  0  0
    8.1962   -3.5000    0.0000 C   0  0  0  0  0  0  0  0  0  0  0  0
    7.3301   -2.0000    0.0000 C   0  0  0  0  0  0  0  0  0  0  0  0
    8.1962   -4.5000    0.0000 C   0  0  0  0  0  0  0  0  0  0  0  0
    6.4641   -3.5000    0.0000 C   0  0  0  0  0  0  0  0  0  0  0  0
    7.3301   -5.0000    0.0000 C   0  0  0  0  0  0  0  0  0  0  0  0
    9.1424   -3.1953    0.0000 C   0  0  0  0  0  0  0  0  0  0  0  0
    6.4641   -4.5000    0.0000 C   0  0  0  0  0  0  0  0  0  0  0  0
    6.4641   -1.5000    0.0000 C   0  0  0  0  0  0  0  0  0  0  0  0
    8.1962   -1.5000    0.0000 C   0  0  0  0  0  0  0  0  0  0  0  0
    7.3301    0.0000    0.0000 C   0  0  0  0  0  0  0  0  0  0  0  0
    6.4641   -0.5000    0.0000 C   0  0  0  0  0  0  0  0  0  0  0  0
    8.1962   -0.5000    0.0000 C   0  0  0  0  0  0  0  0  0  0  0  0
    6.4641    1.5000    0.0000 C   0  0  0  0  0  0  0  0  0  0  0  0
    5.5981    3.0000    0.0000 C   0  0  0  0  0  0  0  0  0  0  0  0
    6.4641   -6.5000    0.0000 C   0  0  0  0  0  0  0  0  0  0  0  0
    5.5981    4.0000    0.0000 C   0  0  0  0  0  0  0  0  0  0  0  0
    4.7320    2.5000    0.0000 C   0  0  0  0  0  0  0  0  0  0  0  0
    3.8660    4.0000    0.0000 C   0  0  0  0  0  0  0  0  0  0  0  0
    4.7320    4.5000    0.0000 C   0  0  0  0  0  0  0  0  0  0  0  0
    3.8660    3.0000    0.0000 C   0  0  0  0  0  0  0  0  0  0  0  0
    3.0000    5.5000    0.0000 C   0  0  0  0  0  0  0  0  0  0  0  0
    5.9272   -3.1900    0.0000 H   0  0  0  0  0  0  0  0  0  0  0  0
    5.9272   -4.8100    0.0000 H   0  0  0  0  0  0  0  0  0  0  0  0
    5.9272   -1.8100    0.0000 H   0  0  0  0  0  0  0  0  0  0  0  0
    8.7331   -1.8100    0.0000 H   0  0  0  0  0  0  0  0  0  0  0  0
    5.9272   -0.1900    0.0000 H   0  0  0  0  0  0  0  0  0  0  0  0
    8.7331   -0.1900    0.0000 H   0  0  0  0  0  0  0  0  0  0  0  0
    7.8671    1.3100    0.0000 H   0  0  0  0  0  0  0  0  0  0  0  0
   10.0597   -2.1169    0.0000 H   0  0  0  0  0  0  0  0  0  0  0  0
    9.0390   -1.7833    0.0000 H   0  0  0  0  0  0  0  0  0  0  0  0
    7.0010    2.8100    0.0000 H   0  0  0  0  0  0  0  0  0  0  0  0
    6.1541   -5.9631    0.0000 H   0  0  0  0  0  0  0  0  0  0  0  0
    5.9272   -6.8100    0.0000 H   0  0  0  0  0  0  0  0  0  0  0  0
    6.7741   -7.0369    0.0000 H   0  0  0  0  0  0  0  0  0  0  0  0
    6.1350    4.3100    0.0000 H   0  0  0  0  0  0  0  0  0  0  0  0
    4.7320    1.8800    0.0000 H   0  0  0  0  0  0  0  0  0  0  0  0
    4.7320    5.1200    0.0000 H   0  0  0  0  0  0  0  0  0  0  0  0
    3.3291    2.6900    0.0000 H   0  0  0  0  0  0  0  0  0  0  0  0
  1 33  1  0  0  0  0
  2 33  1  0  0  0  0
  3 33  1  0  0  0  0
  4  8  1  0  0  0  0
  4 15  1  0  0  0  0
  5 17  1  0  0  0  0
  5 27  1  0  0  0  0
  6 25  2  0  0  0  0
  7 30  1  0  0  0  0
  7 33  1  0  0  0  0
  8 18  2  0  0  0  0
  9 22  1  0  0  0  0
  9 25  1  0  0  0  0
  9 40  1  0  0  0  0
 10 18  1  0  0  0  0
 10 41  1  0  0  0  0
 10 42  1  0  0  0  0
 11 25  1  0  0  0  0
 11 26  1  0  0  0  0
 11 43  1  0  0  0  0
 12 13  2  0  0  0  0
 12 14  1  0  0  0  0
 12 16  1  0  0  0  0
 13 15  1  0  0  0  0
 13 18  1  0  0  0  0
 14 20  2  0  0  0  0
 14 21  1  0  0  0  0
 15 17  2  0  0  0  0
 16 19  2  0  0  0  0
 16 34  1  0  0  0  0
 17 19  1  0  0  0  0
 19 35  1  0  0  0  0
 20 23  1  0  0  0  0
 20 36  1  0  0  0  0
 21 24  2  0  0  0  0
 21 37  1  0  0  0  0
 22 23  2  0  0  0  0
 22 24  1  0  0  0  0
 23 38  1  0  0  0  0
 24 39  1  0  0  0  0
 26 28  2  0  0  0  0
 26 29  1  0  0  0  0
 27 44  1  0  0  0  0
 27 45  1  0  0  0  0
 27 46  1  0  0  0  0
 28 31  1  0  0  0  0
 28 47  1  0  0  0  0
 29 32  2  0  0  0  0
 29 48  1  0  0  0  0
 30 31  2  0  0  0  0
 30 32  1  0  0  0  0
 31 49  1  0  0  0  0
 32 50  1  0  0  0  0
M  END
> <PUBCHEM_COMPOUND_CID>
11856995

> <PUBCHEM_COMPOUND_CANONICALIZED>
1

> <PUBCHEM_CACTVS_COMPLEXITY>
654

> <PUBCHEM_CACTVS_HBOND_ACCEPTOR>
9

> <PUBCHEM_CACTVS_HBOND_DONOR>
3

> <PUBCHEM_CACTVS_ROTATABLE_BOND>
5

> <PUBCHEM_CACTVS_SUBSKEYS>
AAADceB7uYAAAAAAAAAAAAAAAAAAAWAAAAAwYMAAAAAAAFgB9AAAHwAUAAAADAyBmhIz9tLQBACpAqZycgKCCAAlIgAomCFm7NqNJjrEtZ+EMapu1BtK6ee4yPCOqEABAAAYQABQgAIAADCAAAAAAAAAAA==

> <PUBCHEM_IUPAC_OPENEYE_NAME>
1-[4-(3-amino-7-methoxy-1,2-benzoxazol-4-yl)phenyl]-3-[4-(trifluoromethoxy)phenyl]urea

> <PUBCHEM_IUPAC_CAS_NAME>
1-[4-(3-amino-7-methoxy-1,2-benzoxazol-4-yl)phenyl]-3-[4-(trifluoromethoxy)phenyl]urea

> <PUBCHEM_IUPAC_NAME_MARKUP>
1-[4-(3-amino-7-methoxy-1,2-benzoxazol-4-yl)phenyl]-3-[4-(trifluoromethoxy)phenyl]urea

> <PUBCHEM_IUPAC_NAME>
1-[4-(3-amino-7-methoxy-1,2-benzoxazol-4-yl)phenyl]-3-[4-(trifluoromethoxy)phenyl]urea

> <PUBCHEM_IUPAC_SYSTEMATIC_NAME>
1-[4-(3-azanyl-7-methoxy-1,2-benzoxazol-4-yl)phenyl]-3-[4-(trifluoromethyloxy)phenyl]urea

> <PUBCHEM_IUPAC_TRADITIONAL_NAME>
1-[4-(3-amino-7-methoxy-indoxazen-4-yl)phenyl]-3-[4-(trifluoromethoxy)phenyl]urea

> <PUBCHEM_IUPAC_INCHI>
InChI=1S/C22H17F3N4O4/c1-31-17-11-10-16(18-19(17)33-29-20(18)26)12-2-4-13(5-3-12)27-21(30)28-14-6-8-15(9-7-14)32-22(23,24)25/h2-11H,1H3,(H2,26,29)(H2,27,28,30)

> <PUBCHEM_IUPAC_INCHIKEY>
UXQLMVSZSYZFID-UHFFFAOYSA-N

> <PUBCHEM_XLOGP3_AA>
4.7

> <PUBCHEM_EXACT_MASS>
458.12018952

> <PUBCHEM_MOLECULAR_FORMULA>
C22H17F3N4O4

> <PUBCHEM_MOLECULAR_WEIGHT>
458.4

> <PUBCHEM_SMILES>
COC1=C2C(=C(C=C1)C3=CC=C(C=C3)NC(=O)NC4=CC=C(C=C4)OC(F)(F)F)C(=NO2)N

> <PUBCHEM_OPENEYE_CAN_SMILES>
COC1=C2C(=C(C=C1)C3=CC=C(C=C3)NC(=O)NC4=CC=C(C=C4)OC(F)(F)F)C(=NO2)N

> <PUBCHEM_OPENEYE_ISO_SMILES>
COC1=C2C(=C(C=C1)C3=CC=C(C=C3)NC(=O)NC4=CC=C(C=C4)OC(F)(F)F)C(=NO2)N

> <PUBCHEM_CACTVS_TPSA>
112

> <PUBCHEM_MONOISOTOPIC_WEIGHT>
458.12018952

> <PUBCHEM_TOTAL_CHARGE>
0

> <PUBCHEM_HEAVY_ATOM_COUNT>
33

> <PUBCHEM_ATOM_DEF_STEREO_COUNT>
0

> <PUBCHEM_ATOM_UDEF_STEREO_COUNT>
0

> <PUBCHEM_BOND_DEF_STEREO_COUNT>
0

> <PUBCHEM_BOND_UDEF_STEREO_COUNT>
0

> <PUBCHEM_ISOTOPIC_ATOM_COUNT>
0

> <PUBCHEM_COMPONENT_COUNT>
1

> <PUBCHEM_CACTVS_TAUTO_COUNT>
-1

> <PUBCHEM_COORDINATE_TYPE>
1
5
255

> <PUBCHEM_BONDANNOTATIONS>
12  13  8
12  16  8
13  15  8
13  18  8
14  20  8
14  21  8
15  17  8
16  19  8
17  19  8
20  23  8
21  24  8
22  23  8
22  24  8
26  28  8
26  29  8
28  31  8
29  32  8
30  31  8
30  32  8
4  15  8
4  8  8
8  18  8

$$$$
