49830367
  -OEChem-03202503002D

 62 66  0     1  0  0  0  0  0999 V2000
    4.6783   -1.0496    0.0000 S   0  0  0  0  0  0  0  0  0  0  0  0
    4.1349   -6.3153    0.0000 O   0  0  0  0  0  0  0  0  0  0  0  0
    7.5673    3.8239    0.0000 O   0  0  0  0  0  0  0  0  0  0  0  0
    3.3660   -3.7837    0.0000 N   0  0  0  0  0  0  0  0  0  0  0  0
    2.3660   -3.7837    0.0000 N   0  0  0  0  0  0  0  0  0  0  0  0
    2.0000    0.2552    0.0000 N   0  0  0  0  0  0  0  0  0  0  0  0
    2.8660    1.7552    0.0000 N   0  0  0  0  0  0  0  0  0  0  0  0
    5.9209    4.3620    0.0000 N   0  0  0  0  0  0  0  0  0  0  0  0
    7.2101    5.5187    0.0000 N   0  0  0  0  0  0  0  0  0  0  0  0
    3.7320    0.2552    0.0000 C   0  0  0  0  0  0  0  0  0  0  0  0
    3.7320   -0.7448    0.0000 C   0  0  0  0  0  0  0  0  0  0  0  0
    2.8660   -1.2448    0.0000 C   0  0  0  0  0  0  0  0  0  0  0  0
    4.6783    0.5599    0.0000 C   0  0  0  0  0  0  0  0  0  0  0  0
    2.8660   -2.2448    0.0000 C   0  0  0  0  0  0  0  0  0  0  0  0
    3.9538   -4.5927    0.0000 C   0  0  0  0  0  0  0  0  0  0  0  0
    3.6750   -2.8326    0.0000 C   0  0  0  0  0  0  0  0  0  0  0  0
    4.9889    1.5104    0.0000 C   0  0  0  0  0  0  0  0  0  0  0  0
    2.8660    0.7552    0.0000 C   0  0  0  0  0  0  0  0  0  0  0  0
    3.5471   -5.5062    0.0000 C   0  0  3  0  0  0  0  0  0  0  0  0
    5.2619   -0.2448    0.0000 C   0  0  0  0  0  0  0  0  0  0  0  0
    2.0000   -0.7448    0.0000 C   0  0  0  0  0  0  0  0  0  0  0  0
    2.0570   -2.8326    0.0000 C   0  0  0  0  0  0  0  0  0  0  0  0
    4.3211    2.2547    0.0000 C   0  0  0  0  0  0  0  0  0  0  0  0
    5.9674    1.7166    0.0000 C   0  0  0  0  0  0  0  0  0  0  0  0
    2.5526   -5.6108    0.0000 C   0  0  0  0  0  0  0  0  0  0  0  0
    5.6103    3.4114    0.0000 C   0  0  0  0  0  0  0  0  0  0  0  0
    4.6318    3.2052    0.0000 C   0  0  0  0  0  0  0  0  0  0  0  0
    6.2781    2.6672    0.0000 C   0  0  0  0  0  0  0  0  0  0  0  0
    6.8994    4.5682    0.0000 C   0  0  0  0  0  0  0  0  0  0  0  0
    8.1886    5.7249    0.0000 C   0  0  0  0  0  0  0  0  0  0  0  0
    8.8564    4.9806    0.0000 C   0  0  0  0  0  0  0  0  0  0  0  0
    9.8349    5.1868    0.0000 C   0  0  0  0  0  0  0  0  0  0  0  0
    8.4993    6.6754    0.0000 C   0  0  0  0  0  0  0  0  0  0  0  0
   10.1456    6.1374    0.0000 C   0  0  0  0  0  0  0  0  0  0  0  0
    9.4778    6.8817    0.0000 C   0  0  0  0  0  0  0  0  0  0  0  0
   10.5028    4.4425    0.0000 C   0  0  0  0  0  0  0  0  0  0  0  0
    4.4678   -4.9394    0.0000 H   0  0  0  0  0  0  0  0  0  0  0  0
    4.3845   -4.1467    0.0000 H   0  0  0  0  0  0  0  0  0  0  0  0
    4.2647   -2.6410    0.0000 H   0  0  0  0  0  0  0  0  0  0  0  0
    4.1637   -5.4414    0.0000 H   0  0  0  0  0  0  0  0  0  0  0  0
    5.8819   -0.2448    0.0000 H   0  0  0  0  0  0  0  0  0  0  0  0
    1.4631   -1.0548    0.0000 H   0  0  0  0  0  0  0  0  0  0  0  0
    1.4674   -2.6410    0.0000 H   0  0  0  0  0  0  0  0  0  0  0  0
    3.7144    2.1268    0.0000 H   0  0  0  0  0  0  0  0  0  0  0  0
    6.3815    1.2552    0.0000 H   0  0  0  0  0  0  0  0  0  0  0  0
    2.4877   -4.9942    0.0000 H   0  0  0  0  0  0  0  0  0  0  0  0
    1.9360   -5.6756    0.0000 H   0  0  0  0  0  0  0  0  0  0  0  0
    2.6174   -6.2274    0.0000 H   0  0  0  0  0  0  0  0  0  0  0  0
    4.2177    3.6667    0.0000 H   0  0  0  0  0  0  0  0  0  0  0  0
    6.8848    2.7950    0.0000 H   0  0  0  0  0  0  0  0  0  0  0  0
    2.3291    2.0652    0.0000 H   0  0  0  0  0  0  0  0  0  0  0  0
    3.4030    2.0652    0.0000 H   0  0  0  0  0  0  0  0  0  0  0  0
    3.8827   -6.8817    0.0000 H   0  0  0  0  0  0  0  0  0  0  0  0
    5.5069    4.8234    0.0000 H   0  0  0  0  0  0  0  0  0  0  0  0
    6.7960    5.9802    0.0000 H   0  0  0  0  0  0  0  0  0  0  0  0
    8.6638    4.3913    0.0000 H   0  0  0  0  0  0  0  0  0  0  0  0
    8.0852    7.1369    0.0000 H   0  0  0  0  0  0  0  0  0  0  0  0
   10.7523    6.2652    0.0000 H   0  0  0  0  0  0  0  0  0  0  0  0
    9.6704    7.4710    0.0000 H   0  0  0  0  0  0  0  0  0  0  0  0
   10.0413    4.0285    0.0000 H   0  0  0  0  0  0  0  0  0  0  0  0
   10.9169    3.9811    0.0000 H   0  0  0  0  0  0  0  0  0  0  0  0
   10.9643    4.8566    0.0000 H   0  0  0  0  0  0  0  0  0  0  0  0
  1 11  1  0  0  0  0
  1 20  1  0  0  0  0
  2 19  1  0  0  0  0
  2 53  1  0  0  0  0
  3 29  2  0  0  0  0
  4  5  1  0  0  0  0
  4 15  1  0  0  0  0
  4 16  1  0  0  0  0
  5 22  2  0  0  0  0
  6 18  2  0  0  0  0
  6 21  1  0  0  0  0
  7 18  1  0  0  0  0
  7 51  1  0  0  0  0
  7 52  1  0  0  0  0
  8 26  1  0  0  0  0
  8 29  1  0  0  0  0
  8 54  1  0  0  0  0
  9 29  1  0  0  0  0
  9 30  1  0  0  0  0
  9 55  1  0  0  0  0
 10 11  2  0  0  0  0
 10 13  1  0  0  0  0
 10 18  1  0  0  0  0
 11 12  1  0  0  0  0
 12 14  1  0  0  0  0
 12 21  2  0  0  0  0
 13 17  1  0  0  0  0
 13 20  2  0  0  0  0
 14 16  2  0  0  0  0
 14 22  1  0  0  0  0
 15 19  1  0  0  0  0
 15 37  1  0  0  0  0
 15 38  1  0  0  0  0
 16 39  1  0  0  0  0
 17 23  2  0  0  0  0
 17 24  1  0  0  0  0
 19 25  1  0  0  0  0
 19 40  1  0  0  0  0
 20 41  1  0  0  0  0
 21 42  1  0  0  0  0
 22 43  1  0  0  0  0
 23 27  1  0  0  0  0
 23 44  1  0  0  0  0
 24 28  2  0  0  0  0
 24 45  1  0  0  0  0
 25 46  1  0  0  0  0
 25 47  1  0  0  0  0
 25 48  1  0  0  0  0
 26 27  2  0  0  0  0
 26 28  1  0  0  0  0
 27 49  1  0  0  0  0
 28 50  1  0  0  0  0
 30 31  1  0  0  0  0
 30 33  2  0  0  0  0
 31 32  2  0  0  0  0
 31 56  1  0  0  0  0
 32 34  1  0  0  0  0
 32 36  1  0  0  0  0
 33 35  1  0  0  0  0
 33 57  1  0  0  0  0
 34 35  2  0  0  0  0
 34 58  1  0  0  0  0
 35 59  1  0  0  0  0
 36 60  1  0  0  0  0
 36 61  1  0  0  0  0
 36 62  1  0  0  0  0
M  END
> <PUBCHEM_COMPOUND_CID>
49830367

> <PUBCHEM_COMPOUND_CANONICALIZED>
1

> <PUBCHEM_CACTVS_COMPLEXITY>
737

> <PUBCHEM_CACTVS_HBOND_ACCEPTOR>
6

> <PUBCHEM_CACTVS_HBOND_DONOR>
4

> <PUBCHEM_CACTVS_ROTATABLE_BOND>
6

> <PUBCHEM_CACTVS_SUBSKEYS>
AAADceB7sABAAAAAAAAAAAAAAAAAAWJAAAA8YIAAAAAAAFgB/gAAHgQYCAAADBzl2ga/8dLIEgiuAjZndACThKkxijAY2DAoZJiKMOLg0dGEpAxonAL4yCcQgMAOiAAAQAAAAAAQAACAAAAAAAAAAAAAAA==

> <PUBCHEM_IUPAC_OPENEYE_NAME>
1-[4-[4-amino-7-[1-(2-hydroxypropyl)pyrazol-4-yl]thieno[3,2-c]pyridin-3-yl]phenyl]-3-(m-tolyl)urea

> <PUBCHEM_IUPAC_CAS_NAME>
1-[4-[4-amino-7-[1-(2-hydroxypropyl)-4-pyrazolyl]-3-thieno[3,2-c]pyridinyl]phenyl]-3-(3-methylphenyl)urea

> <PUBCHEM_IUPAC_NAME_MARKUP>
1-[4-[4-amino-7-[1-(2-hydroxypropyl)pyrazol-4-yl]thieno[3,2-c]pyridin-3-yl]phenyl]-3-(3-methylphenyl)urea

> <PUBCHEM_IUPAC_NAME>
1-[4-[4-amino-7-[1-(2-hydroxypropyl)pyrazol-4-yl]thieno[3,2-c]pyridin-3-yl]phenyl]-3-(3-methylphenyl)urea

> <PUBCHEM_IUPAC_SYSTEMATIC_NAME>
1-[4-[4-azanyl-7-[1-(2-oxidanylpropyl)pyrazol-4-yl]thieno[3,2-c]pyridin-3-yl]phenyl]-3-(3-methylphenyl)urea

> <PUBCHEM_IUPAC_TRADITIONAL_NAME>
1-[4-[4-amino-7-[1-(2-hydroxypropyl)pyrazol-4-yl]thieno[3,2-c]pyridin-3-yl]phenyl]-3-(m-tolyl)urea

> <PUBCHEM_IUPAC_INCHI>
InChI=1S/C27H26N6O2S/c1-16-4-3-5-21(10-16)32-27(35)31-20-8-6-18(7-9-20)23-15-36-25-22(12-29-26(28)24(23)25)19-11-30-33(14-19)13-17(2)34/h3-12,14-15,17,34H,13H2,1-2H3,(H2,28,29)(H2,31,32,35)

> <PUBCHEM_IUPAC_INCHIKEY>
VKBFHTIUXUCYRQ-UHFFFAOYSA-N

> <PUBCHEM_XLOGP3_AA>
3.7

> <PUBCHEM_EXACT_MASS>
498.18379527

> <PUBCHEM_MOLECULAR_FORMULA>
C27H26N6O2S

> <PUBCHEM_MOLECULAR_WEIGHT>
498.6

> <PUBCHEM_SMILES>
CC1=CC(=CC=C1)NC(=O)NC2=CC=C(C=C2)C3=CSC4=C3C(=NC=C4C5=CN(N=C5)CC(C)O)N

> <PUBCHEM_OPENEYE_CAN_SMILES>
CC1=CC(=CC=C1)NC(=O)NC2=CC=C(C=C2)C3=CSC4=C3C(=NC=C4C5=CN(N=C5)CC(C)O)N

> <PUBCHEM_OPENEYE_ISO_SMILES>
CC1=CC(=CC=C1)NC(=O)NC2=CC=C(C=C2)C3=CSC4=C3C(=NC=C4C5=CN(N=C5)CC(C)O)N

> <PUBCHEM_CACTVS_TPSA>
146

> <PUBCHEM_MONOISOTOPIC_WEIGHT>
498.18379527

> <PUBCHEM_TOTAL_CHARGE>
0

> <PUBCHEM_HEAVY_ATOM_COUNT>
36

> <PUBCHEM_ATOM_DEF_STEREO_COUNT>
0

> <PUBCHEM_ATOM_UDEF_STEREO_COUNT>
1

> <PUBCHEM_BOND_DEF_STEREO_COUNT>
0

> <PUBCHEM_BOND_UDEF_STEREO_COUNT>
0

> <PUBCHEM_ISOTOPIC_ATOM_COUNT>
0

> <PUBCHEM_COMPONENT_COUNT>
1

> <PUBCHEM_CACTVS_TAUTO_COUNT>
-1

> <PUBCHEM_COORDINATE_TYPE>
1
5
255

> <PUBCHEM_BONDANNOTATIONS>
1  11  8
1  20  8
10  11  8
10  13  8
10  18  8
11  12  8
12  21  8
13  20  8
14  16  8
14  22  8
17  23  8
17  24  8
19  2  3
23  27  8
24  28  8
26  27  8
26  28  8
30  31  8
30  33  8
31  32  8
32  34  8
33  35  8
34  35  8
4  16  8
4  5  8
5  22  8
6  18  8
6  21  8

$$$$
