24905210
  -OEChem-03192523332D

 31 34  0     0  0  0  0  0  0999 V2000
    4.6783   -2.4683    0.0000 N   0  0  0  0  0  0  0  0  0  0  0  0
    5.2619   -1.6635    0.0000 N   0  0  0  0  0  0  0  0  0  0  0  0
    6.1110    2.8515    0.0000 N   0  0  0  0  0  0  0  0  0  0  0  0
    4.6318    1.7866    0.0000 N   0  0  0  0  0  0  0  0  0  0  0  0
    2.8660   -2.6635    0.0000 N   0  0  0  0  0  0  0  0  0  0  0  0
    2.0000   -1.1635    0.0000 N   0  0  0  0  0  0  0  0  0  0  0  0
    2.8660    0.3365    0.0000 N   0  0  0  0  0  0  0  0  0  0  0  0
    4.6783   -0.8588    0.0000 C   0  0  0  0  0  0  0  0  0  0  0  0
    3.7320   -1.1635    0.0000 C   0  0  0  0  0  0  0  0  0  0  0  0
    4.9889    0.0917    0.0000 C   0  0  0  0  0  0  0  0  0  0  0  0
    3.7320   -2.1635    0.0000 C   0  0  0  0  0  0  0  0  0  0  0  0
    6.2781    1.2485    0.0000 C   0  0  0  0  0  0  0  0  0  0  0  0
    5.9674    0.2979    0.0000 C   0  0  0  0  0  0  0  0  0  0  0  0
    5.6103    1.9928    0.0000 C   0  0  0  0  0  0  0  0  0  0  0  0
    2.8660   -0.6635    0.0000 C   0  0  0  0  0  0  0  0  0  0  0  0
    4.3211    0.8360    0.0000 C   0  0  0  0  0  0  0  0  0  0  0  0
    7.1859    1.6536    0.0000 C   0  0  0  0  0  0  0  0  0  0  0  0
    4.9889   -3.4188    0.0000 C   0  0  0  0  0  0  0  0  0  0  0  0
    7.0828    2.6423    0.0000 C   0  0  0  0  0  0  0  0  0  0  0  0
    2.0000   -2.1635    0.0000 C   0  0  0  0  0  0  0  0  0  0  0  0
    6.3815   -0.1635    0.0000 H   0  0  0  0  0  0  0  0  0  0  0  0
    3.7144    0.7082    0.0000 H   0  0  0  0  0  0  0  0  0  0  0  0
    4.3996   -3.6114    0.0000 H   0  0  0  0  0  0  0  0  0  0  0  0
    5.1815   -4.0081    0.0000 H   0  0  0  0  0  0  0  0  0  0  0  0
    5.5783   -3.2262    0.0000 H   0  0  0  0  0  0  0  0  0  0  0  0
    7.7228    1.3436    0.0000 H   0  0  0  0  0  0  0  0  0  0  0  0
    5.8608    3.4188    0.0000 H   0  0  0  0  0  0  0  0  0  0  0  0
    7.5443    3.0564    0.0000 H   0  0  0  0  0  0  0  0  0  0  0  0
    1.4631   -2.4735    0.0000 H   0  0  0  0  0  0  0  0  0  0  0  0
    2.3291    0.6465    0.0000 H   0  0  0  0  0  0  0  0  0  0  0  0
    3.4030    0.6465    0.0000 H   0  0  0  0  0  0  0  0  0  0  0  0
  1  2  1  0  0  0  0
  1 11  1  0  0  0  0
  1 18  1  0  0  0  0
  2  8  2  0  0  0  0
  3 14  1  0  0  0  0
  3 19  1  0  0  0  0
  3 27  1  0  0  0  0
  4 14  2  0  0  0  0
  4 16  1  0  0  0  0
  5 11  2  0  0  0  0
  5 20  1  0  0  0  0
  6 15  1  0  0  0  0
  6 20  2  0  0  0  0
  7 15  1  0  0  0  0
  7 30  1  0  0  0  0
  7 31  1  0  0  0  0
  8  9  1  0  0  0  0
  8 10  1  0  0  0  0
  9 11  1  0  0  0  0
  9 15  2  0  0  0  0
 10 13  1  0  0  0  0
 10 16  2  0  0  0  0
 12 13  2  0  0  0  0
 12 14  1  0  0  0  0
 12 17  1  0  0  0  0
 13 21  1  0  0  0  0
 16 22  1  0  0  0  0
 17 19  2  0  0  0  0
 17 26  1  0  0  0  0
 18 23  1  0  0  0  0
 18 24  1  0  0  0  0
 18 25  1  0  0  0  0
 19 28  1  0  0  0  0
 20 29  1  0  0  0  0
M  END
> <PUBCHEM_COMPOUND_CID>
24905210

> <PUBCHEM_COMPOUND_CANONICALIZED>
1

> <PUBCHEM_CACTVS_COMPLEXITY>
365

> <PUBCHEM_CACTVS_HBOND_ACCEPTOR>
5

> <PUBCHEM_CACTVS_HBOND_DONOR>
2

> <PUBCHEM_CACTVS_ROTATABLE_BOND>
1

> <PUBCHEM_CACTVS_SUBSKEYS>
AAADccBzgAAAAAAAAAAAAAAAAAAAAWLAAAAsWAAAAAAAAFgB/gAAHAAYAAAADAjBHwQ/sN7JkACiAzZnZACShCuxgqAd2aA4ZJiIKOLA2dGEpAhomALIyCcQgMAOAAAAAAAAAAAAAAAAAAAAAAAAAAAAAA==

> <PUBCHEM_IUPAC_OPENEYE_NAME>
1-methyl-3-(1H-pyrrolo[2,3-b]pyridin-5-yl)pyrazolo[3,4-d]pyrimidin-4-amine

> <PUBCHEM_IUPAC_CAS_NAME>
1-methyl-3-(1H-pyrrolo[2,3-b]pyridin-5-yl)-4-pyrazolo[3,4-d]pyrimidinamine

> <PUBCHEM_IUPAC_NAME_MARKUP>
1-methyl-3-(1<I>H</I>-pyrrolo[2,3-b]pyridin-5-yl)pyrazolo[3,4-d]pyrimidin-4-amine

> <PUBCHEM_IUPAC_NAME>
1-methyl-3-(1H-pyrrolo[2,3-b]pyridin-5-yl)pyrazolo[3,4-d]pyrimidin-4-amine

> <PUBCHEM_IUPAC_SYSTEMATIC_NAME>
1-methyl-3-(1H-pyrrolo[2,3-b]pyridin-5-yl)pyrazolo[3,4-d]pyrimidin-4-amine

> <PUBCHEM_IUPAC_TRADITIONAL_NAME>
[1-methyl-3-(1H-pyrrolo[2,3-b]pyridin-5-yl)pyrazolo[3,4-d]pyrimidin-4-yl]amine

> <PUBCHEM_IUPAC_INCHI>
InChI=1S/C13H11N7/c1-20-13-9(11(14)17-6-18-13)10(19-20)8-4-7-2-3-15-12(7)16-5-8/h2-6H,1H3,(H,15,16)(H2,14,17,18)

> <PUBCHEM_IUPAC_INCHIKEY>
PGXQNHGXDFCMOJ-UHFFFAOYSA-N

> <PUBCHEM_XLOGP3_AA>
0.9

> <PUBCHEM_EXACT_MASS>
265.10759338

> <PUBCHEM_MOLECULAR_FORMULA>
C13H11N7

> <PUBCHEM_MOLECULAR_WEIGHT>
265.27

> <PUBCHEM_SMILES>
CN1C2=NC=NC(=C2C(=N1)C3=CN=C4C(=C3)C=CN4)N

> <PUBCHEM_OPENEYE_CAN_SMILES>
CN1C2=NC=NC(=C2C(=N1)C3=CN=C4C(=C3)C=CN4)N

> <PUBCHEM_OPENEYE_ISO_SMILES>
CN1C2=NC=NC(=C2C(=N1)C3=CN=C4C(=C3)C=CN4)N

> <PUBCHEM_CACTVS_TPSA>
98.3

> <PUBCHEM_MONOISOTOPIC_WEIGHT>
265.10759338

> <PUBCHEM_TOTAL_CHARGE>
0

> <PUBCHEM_HEAVY_ATOM_COUNT>
20

> <PUBCHEM_ATOM_DEF_STEREO_COUNT>
0

> <PUBCHEM_ATOM_UDEF_STEREO_COUNT>
0

> <PUBCHEM_BOND_DEF_STEREO_COUNT>
0

> <PUBCHEM_BOND_UDEF_STEREO_COUNT>
0

> <PUBCHEM_ISOTOPIC_ATOM_COUNT>
0

> <PUBCHEM_COMPONENT_COUNT>
1

> <PUBCHEM_CACTVS_TAUTO_COUNT>
-1

> <PUBCHEM_COORDINATE_TYPE>
1
5
255

> <PUBCHEM_BONDANNOTATIONS>
1  11  8
1  2  8
10  13  8
10  16  8
12  13  8
12  14  8
12  17  8
17  19  8
2  8  8
3  14  8
3  19  8
4  14  8
4  16  8
5  11  8
5  20  8
6  15  8
6  20  8
8  9  8
9  11  8
9  15  8

$$$$
