24905335
  -OEChem-03192523562D

 46 48  0     1  0  0  0  0  0999 V2000
    7.2566   -3.9400    0.0000 O   0  0  0  0  0  0  0  0  0  0  0  0
    7.2566    2.2964    0.0000 O   0  0  0  0  0  0  0  0  0  0  0  0
    5.9209    3.7850    0.0000 O   0  0  0  0  0  0  0  0  0  0  0  0
    4.6783   -1.6265    0.0000 N   0  0  0  0  0  0  0  0  0  0  0  0
    5.2619   -0.8218    0.0000 N   0  0  0  0  0  0  0  0  0  0  0  0
    2.8660   -1.8218    0.0000 N   0  0  0  0  0  0  0  0  0  0  0  0
    2.0000   -0.3218    0.0000 N   0  0  0  0  0  0  0  0  0  0  0  0
    2.8660    1.1782    0.0000 N   0  0  0  0  0  0  0  0  0  0  0  0
    5.9674   -2.7833    0.0000 C   0  0  1  0  0  0  0  0  0  0  0  0
    4.9889   -2.5770    0.0000 C   0  0  0  0  0  0  0  0  0  0  0  0
    3.7320   -1.3218    0.0000 C   0  0  0  0  0  0  0  0  0  0  0  0
    3.7320   -0.3218    0.0000 C   0  0  0  0  0  0  0  0  0  0  0  0
    4.6783   -0.0171    0.0000 C   0  0  0  0  0  0  0  0  0  0  0  0
    6.2781   -3.7338    0.0000 C   0  0  0  0  0  0  0  0  0  0  0  0
    6.6353   -2.0390    0.0000 C   0  0  0  0  0  0  0  0  0  0  0  0
    4.9889    0.9335    0.0000 C   0  0  0  0  0  0  0  0  0  0  0  0
    2.8660    0.1782    0.0000 C   0  0  0  0  0  0  0  0  0  0  0  0
    5.9674    1.1397    0.0000 C   0  0  0  0  0  0  0  0  0  0  0  0
    4.3211    1.6778    0.0000 C   0  0  0  0  0  0  0  0  0  0  0  0
    6.2781    2.0902    0.0000 C   0  0  0  0  0  0  0  0  0  0  0  0
    2.0000   -1.3218    0.0000 C   0  0  0  0  0  0  0  0  0  0  0  0
    4.6318    2.6283    0.0000 C   0  0  0  0  0  0  0  0  0  0  0  0
    5.6103    2.8345    0.0000 C   0  0  0  0  0  0  0  0  0  0  0  0
    7.9244    1.5521    0.0000 C   0  0  0  0  0  0  0  0  0  0  0  0
    5.2531    4.5293    0.0000 C   0  0  0  0  0  0  0  0  0  0  0  0
    5.7748   -2.1939    0.0000 H   0  0  0  0  0  0  0  0  0  0  0  0
    4.3751   -2.6644    0.0000 H   0  0  0  0  0  0  0  0  0  0  0  0
    4.9684   -3.1967    0.0000 H   0  0  0  0  0  0  0  0  0  0  0  0
    5.6643   -3.8211    0.0000 H   0  0  0  0  0  0  0  0  0  0  0  0
    6.2575   -4.3534    0.0000 H   0  0  0  0  0  0  0  0  0  0  0  0
    7.0968   -2.4530    0.0000 H   0  0  0  0  0  0  0  0  0  0  0  0
    7.0494   -1.5775    0.0000 H   0  0  0  0  0  0  0  0  0  0  0  0
    6.1738   -1.6249    0.0000 H   0  0  0  0  0  0  0  0  0  0  0  0
    6.3815    0.6782    0.0000 H   0  0  0  0  0  0  0  0  0  0  0  0
    3.7144    1.5499    0.0000 H   0  0  0  0  0  0  0  0  0  0  0  0
    1.4631   -1.6318    0.0000 H   0  0  0  0  0  0  0  0  0  0  0  0
    7.4492   -4.5293    0.0000 H   0  0  0  0  0  0  0  0  0  0  0  0
    4.2177    3.0898    0.0000 H   0  0  0  0  0  0  0  0  0  0  0  0
    2.3291    1.4882    0.0000 H   0  0  0  0  0  0  0  0  0  0  0  0
    3.4030    1.4882    0.0000 H   0  0  0  0  0  0  0  0  0  0  0  0
    7.4630    1.1380    0.0000 H   0  0  0  0  0  0  0  0  0  0  0  0
    8.3385    1.0906    0.0000 H   0  0  0  0  0  0  0  0  0  0  0  0
    8.3859    1.9662    0.0000 H   0  0  0  0  0  0  0  0  0  0  0  0
    5.7145    4.9434    0.0000 H   0  0  0  0  0  0  0  0  0  0  0  0
    4.8390    4.9908    0.0000 H   0  0  0  0  0  0  0  0  0  0  0  0
    4.7916    4.1153    0.0000 H   0  0  0  0  0  0  0  0  0  0  0  0
  1 14  1  0  0  0  0
  1 37  1  0  0  0  0
  2 20  1  0  0  0  0
  2 24  1  0  0  0  0
  3 23  1  0  0  0  0
  3 25  1  0  0  0  0
  4  5  1  0  0  0  0
  4 10  1  0  0  0  0
  4 11  1  0  0  0  0
  5 13  2  0  0  0  0
  6 11  2  0  0  0  0
  6 21  1  0  0  0  0
  7 17  1  0  0  0  0
  7 21  2  0  0  0  0
  8 17  1  0  0  0  0
  8 39  1  0  0  0  0
  8 40  1  0  0  0  0
  9 10  1  0  0  0  0
  9 14  1  0  0  0  0
  9 15  1  6  0  0  0
  9 26  1  0  0  0  0
 10 27  1  0  0  0  0
 10 28  1  0  0  0  0
 11 12  1  0  0  0  0
 12 13  1  0  0  0  0
 12 17  2  0  0  0  0
 13 16  1  0  0  0  0
 14 29  1  0  0  0  0
 14 30  1  0  0  0  0
 15 31  1  0  0  0  0
 15 32  1  0  0  0  0
 15 33  1  0  0  0  0
 16 18  2  0  0  0  0
 16 19  1  0  0  0  0
 18 20  1  0  0  0  0
 18 34  1  0  0  0  0
 19 22  2  0  0  0  0
 19 35  1  0  0  0  0
 20 23  2  0  0  0  0
 21 36  1  0  0  0  0
 22 23  1  0  0  0  0
 22 38  1  0  0  0  0
 24 41  1  0  0  0  0
 24 42  1  0  0  0  0
 24 43  1  0  0  0  0
 25 44  1  0  0  0  0
 25 45  1  0  0  0  0
 25 46  1  0  0  0  0
M  END
> <PUBCHEM_COMPOUND_CID>
24905335

> <PUBCHEM_COMPOUND_CANONICALIZED>
1

> <PUBCHEM_CACTVS_COMPLEXITY>
429

> <PUBCHEM_CACTVS_HBOND_ACCEPTOR>
7

> <PUBCHEM_CACTVS_HBOND_DONOR>
2

> <PUBCHEM_CACTVS_ROTATABLE_BOND>
6

> <PUBCHEM_CACTVS_SUBSKEYS>
AAADceB7sAAAAAAAAAAAAAAAAAAAAWAAAAA8QAAAAAAAAFgB/AAAHgAYCAAADQzhnwY3tt5IFgCiAyZjZACSjCsxoKAd2CAuzJiNPqLE+duE9CpuyBPK6Cew0PEOIAABAAAAQABAAAIAAACAAAAAAAAAAA==

> <PUBCHEM_IUPAC_OPENEYE_NAME>
(2S)-3-[4-amino-3-(3,4-dimethoxyphenyl)pyrazolo[3,4-d]pyrimidin-1-yl]-2-methyl-propan-1-ol

> <PUBCHEM_IUPAC_CAS_NAME>
(2S)-3-[4-amino-3-(3,4-dimethoxyphenyl)-1-pyrazolo[3,4-d]pyrimidinyl]-2-methyl-1-propanol

> <PUBCHEM_IUPAC_NAME_MARKUP>
(2<I>S</I>)-3-[4-amino-3-(3,4-dimethoxyphenyl)pyrazolo[3,4-d]pyrimidin-1-yl]-2-methylpropan-1-ol

> <PUBCHEM_IUPAC_NAME>
(2S)-3-[4-amino-3-(3,4-dimethoxyphenyl)pyrazolo[3,4-d]pyrimidin-1-yl]-2-methylpropan-1-ol

> <PUBCHEM_IUPAC_SYSTEMATIC_NAME>
(2S)-3-[4-azanyl-3-(3,4-dimethoxyphenyl)pyrazolo[3,4-d]pyrimidin-1-yl]-2-methyl-propan-1-ol

> <PUBCHEM_IUPAC_TRADITIONAL_NAME>
(2S)-3-[4-amino-3-(3,4-dimethoxyphenyl)pyrazolo[3,4-d]pyrimidin-1-yl]-2-methyl-propan-1-ol

> <PUBCHEM_IUPAC_INCHI>
InChI=1S/C17H21N5O3/c1-10(8-23)7-22-17-14(16(18)19-9-20-17)15(21-22)11-4-5-12(24-2)13(6-11)25-3/h4-6,9-10,23H,7-8H2,1-3H3,(H2,18,19,20)/t10-/m0/s1

> <PUBCHEM_IUPAC_INCHIKEY>
ORVLOIUKTHUQPU-JTQLQIEISA-N

> <PUBCHEM_XLOGP3_AA>
1.5

> <PUBCHEM_EXACT_MASS>
343.16443955

> <PUBCHEM_MOLECULAR_FORMULA>
C17H21N5O3

> <PUBCHEM_MOLECULAR_WEIGHT>
343.4

> <PUBCHEM_SMILES>
C[C@@H](CN1C2=NC=NC(=C2C(=N1)C3=CC(=C(C=C3)OC)OC)N)CO

> <PUBCHEM_OPENEYE_CAN_SMILES>
CC(CN1C2=NC=NC(=C2C(=N1)C3=CC(=C(C=C3)OC)OC)N)CO

> <PUBCHEM_OPENEYE_ISO_SMILES>
C[C@@H](CN1C2=NC=NC(=C2C(=N1)C3=CC(=C(C=C3)OC)OC)N)CO

> <PUBCHEM_CACTVS_TPSA>
108

> <PUBCHEM_MONOISOTOPIC_WEIGHT>
343.16443955

> <PUBCHEM_TOTAL_CHARGE>
0

> <PUBCHEM_HEAVY_ATOM_COUNT>
25

> <PUBCHEM_ATOM_DEF_STEREO_COUNT>
1

> <PUBCHEM_ATOM_UDEF_STEREO_COUNT>
0

> <PUBCHEM_BOND_DEF_STEREO_COUNT>
0

> <PUBCHEM_BOND_UDEF_STEREO_COUNT>
0

> <PUBCHEM_ISOTOPIC_ATOM_COUNT>
0

> <PUBCHEM_COMPONENT_COUNT>
1

> <PUBCHEM_CACTVS_TAUTO_COUNT>
-1

> <PUBCHEM_COORDINATE_TYPE>
1
5
255

> <PUBCHEM_BONDANNOTATIONS>
11  12  8
12  13  8
12  17  8
16  18  8
16  19  8
18  20  8
19  22  8
20  23  8
22  23  8
4  11  8
4  5  8
5  13  8
6  11  8
6  21  8
7  17  8
7  21  8
9  15  6

$$$$
