49830538
  -OEChem-03202500562D

 59 63  0     0  0  0  0  0  0999 V2000
    4.5981   -2.2820    0.0000 O   0  0  0  0  0  0  0  0  0  0  0  0
    8.4530   -3.0372    0.0000 O   0  0  0  0  0  0  0  0  0  0  0  0
    4.5563    3.8129    0.0000 O   0  0  0  0  0  0  0  0  0  0  0  0
    8.7260   -1.2820    0.0000 N   0  0  0  0  0  0  0  0  0  0  0  0
    2.8660   -5.2820    0.0000 N   0  0  0  0  0  0  0  0  0  0  0  0
    6.3301    3.7180    0.0000 N   0  0  0  0  0  0  0  0  0  0  0  0
    5.3610    5.2068    0.0000 N   0  0  0  0  0  0  0  0  0  0  0  0
    7.1962   -0.7820    0.0000 C   0  0  0  0  0  0  0  0  0  0  0  0
    7.1962   -1.7820    0.0000 C   0  0  0  0  0  0  0  0  0  0  0  0
    6.3301   -0.2820    0.0000 C   0  0  0  0  0  0  0  0  0  0  0  0
    8.1424   -0.4772    0.0000 C   0  0  0  0  0  0  0  0  0  0  0  0
    5.4641   -1.7820    0.0000 C   0  0  0  0  0  0  0  0  0  0  0  0
    6.3301   -2.2820    0.0000 C   0  0  0  0  0  0  0  0  0  0  0  0
    5.4641   -0.7820    0.0000 C   0  0  0  0  0  0  0  0  0  0  0  0
    8.1424   -2.0867    0.0000 C   0  0  0  0  0  0  0  0  0  0  0  0
    6.3301    0.7180    0.0000 C   0  0  0  0  0  0  0  0  0  0  0  0
    3.7320   -3.7820    0.0000 C   0  0  0  0  0  0  0  0  0  0  0  0
    4.5981   -3.2820    0.0000 C   0  0  0  0  0  0  0  0  0  0  0  0
    3.7320   -4.7820    0.0000 C   0  0  0  0  0  0  0  0  0  0  0  0
    5.4641    1.2180    0.0000 C   0  0  0  0  0  0  0  0  0  0  0  0
    7.1962    1.2180    0.0000 C   0  0  0  0  0  0  0  0  0  0  0  0
    6.3301    2.7180    0.0000 C   0  0  0  0  0  0  0  0  0  0  0  0
    5.4641    2.2180    0.0000 C   0  0  0  0  0  0  0  0  0  0  0  0
    7.1962    2.2180    0.0000 C   0  0  0  0  0  0  0  0  0  0  0  0
    2.8660   -6.2820    0.0000 C   0  0  0  0  0  0  0  0  0  0  0  0
    2.0000   -4.7820    0.0000 C   0  0  0  0  0  0  0  0  0  0  0  0
    5.4641    4.2180    0.0000 C   0  0  0  0  0  0  0  0  0  0  0  0
    3.8892    4.5499    0.0000 C   0  0  0  0  0  0  0  0  0  0  0  0
    4.3892    5.4159    0.0000 C   0  0  0  0  0  0  0  0  0  0  0  0
    2.8892    4.5499    0.0000 C   0  0  0  0  0  0  0  0  0  0  0  0
    3.8892    6.2820    0.0000 C   0  0  0  0  0  0  0  0  0  0  0  0
    2.3892    5.4159    0.0000 C   0  0  0  0  0  0  0  0  0  0  0  0
    2.8892    6.2820    0.0000 C   0  0  0  0  0  0  0  0  0  0  0  0
    8.6798   -0.1680    0.0000 H   0  0  0  0  0  0  0  0  0  0  0  0
    7.8913    0.0897    0.0000 H   0  0  0  0  0  0  0  0  0  0  0  0
    6.3301   -2.9020    0.0000 H   0  0  0  0  0  0  0  0  0  0  0  0
    4.9272   -0.4720    0.0000 H   0  0  0  0  0  0  0  0  0  0  0  0
    9.3460   -1.2820    0.0000 H   0  0  0  0  0  0  0  0  0  0  0  0
    3.5200   -3.1994    0.0000 H   0  0  0  0  0  0  0  0  0  0  0  0
    3.1215   -3.8896    0.0000 H   0  0  0  0  0  0  0  0  0  0  0  0
    4.8101   -3.8646    0.0000 H   0  0  0  0  0  0  0  0  0  0  0  0
    5.2087   -3.1743    0.0000 H   0  0  0  0  0  0  0  0  0  0  0  0
    3.9441   -5.3646    0.0000 H   0  0  0  0  0  0  0  0  0  0  0  0
    4.3426   -4.6743    0.0000 H   0  0  0  0  0  0  0  0  0  0  0  0
    4.9272    0.9080    0.0000 H   0  0  0  0  0  0  0  0  0  0  0  0
    7.7331    0.9080    0.0000 H   0  0  0  0  0  0  0  0  0  0  0  0
    4.9272    2.5280    0.0000 H   0  0  0  0  0  0  0  0  0  0  0  0
    7.7331    2.5280    0.0000 H   0  0  0  0  0  0  0  0  0  0  0  0
    2.2460   -6.2820    0.0000 H   0  0  0  0  0  0  0  0  0  0  0  0
    2.8660   -6.9020    0.0000 H   0  0  0  0  0  0  0  0  0  0  0  0
    3.4860   -6.2820    0.0000 H   0  0  0  0  0  0  0  0  0  0  0  0
    2.3100   -4.2450    0.0000 H   0  0  0  0  0  0  0  0  0  0  0  0
    1.4631   -4.4720    0.0000 H   0  0  0  0  0  0  0  0  0  0  0  0
    1.6900   -5.3189    0.0000 H   0  0  0  0  0  0  0  0  0  0  0  0
    6.8671    4.0280    0.0000 H   0  0  0  0  0  0  0  0  0  0  0  0
    2.5792    4.0130    0.0000 H   0  0  0  0  0  0  0  0  0  0  0  0
    4.1992    6.8189    0.0000 H   0  0  0  0  0  0  0  0  0  0  0  0
    1.7692    5.4159    0.0000 H   0  0  0  0  0  0  0  0  0  0  0  0
    2.5792    6.8189    0.0000 H   0  0  0  0  0  0  0  0  0  0  0  0
  1 12  1  0  0  0  0
  1 18  1  0  0  0  0
  2 15  2  0  0  0  0
  3 27  1  0  0  0  0
  3 28  1  0  0  0  0
  4 11  1  0  0  0  0
  4 15  1  0  0  0  0
  4 38  1  0  0  0  0
  5 19  1  0  0  0  0
  5 25  1  0  0  0  0
  5 26  1  0  0  0  0
  6 22  1  0  0  0  0
  6 27  1  0  0  0  0
  6 55  1  0  0  0  0
  7 27  2  0  0  0  0
  7 29  1  0  0  0  0
  8  9  1  0  0  0  0
  8 10  2  0  0  0  0
  8 11  1  0  0  0  0
  9 13  2  0  0  0  0
  9 15  1  0  0  0  0
 10 14  1  0  0  0  0
 10 16  1  0  0  0  0
 11 34  1  0  0  0  0
 11 35  1  0  0  0  0
 12 13  1  0  0  0  0
 12 14  2  0  0  0  0
 13 36  1  0  0  0  0
 14 37  1  0  0  0  0
 16 20  2  0  0  0  0
 16 21  1  0  0  0  0
 17 18  1  0  0  0  0
 17 19  1  0  0  0  0
 17 39  1  0  0  0  0
 17 40  1  0  0  0  0
 18 41  1  0  0  0  0
 18 42  1  0  0  0  0
 19 43  1  0  0  0  0
 19 44  1  0  0  0  0
 20 23  1  0  0  0  0
 20 45  1  0  0  0  0
 21 24  2  0  0  0  0
 21 46  1  0  0  0  0
 22 23  2  0  0  0  0
 22 24  1  0  0  0  0
 23 47  1  0  0  0  0
 24 48  1  0  0  0  0
 25 49  1  0  0  0  0
 25 50  1  0  0  0  0
 25 51  1  0  0  0  0
 26 52  1  0  0  0  0
 26 53  1  0  0  0  0
 26 54  1  0  0  0  0
 28 29  1  0  0  0  0
 28 30  2  0  0  0  0
 29 31  2  0  0  0  0
 30 32  1  0  0  0  0
 30 56  1  0  0  0  0
 31 33  1  0  0  0  0
 31 57  1  0  0  0  0
 32 33  2  0  0  0  0
 32 58  1  0  0  0  0
 33 59  1  0  0  0  0
M  END
> <PUBCHEM_COMPOUND_CID>
49830538

> <PUBCHEM_COMPOUND_CANONICALIZED>
1

> <PUBCHEM_CACTVS_COMPLEXITY>
653

> <PUBCHEM_CACTVS_HBOND_ACCEPTOR>
6

> <PUBCHEM_CACTVS_HBOND_DONOR>
2

> <PUBCHEM_CACTVS_ROTATABLE_BOND>
8

> <PUBCHEM_CACTVS_SUBSKEYS>
AAADceB7sAAAAAAAAAAAAAAAAAAAAWLAAAAwYMAAAAAAAFgB9AAAHgAQAAAADAzhngYz1rPIFECoA6VydASCiCkvYiAJmKG/bNmOJrLEvbuPOSju1hPY6ae+2PKOqAADAAAQEABQAAYAACAgAAAAAAAAAA==

> <PUBCHEM_IUPAC_OPENEYE_NAME>
4-[4-(1,3-benzoxazol-2-ylamino)phenyl]-6-[3-(dimethylamino)propoxy]isoindolin-1-one

> <PUBCHEM_IUPAC_CAS_NAME>
4-[4-(1,3-benzoxazol-2-ylamino)phenyl]-6-[3-(dimethylamino)propoxy]-2,3-dihydroisoindol-1-one

> <PUBCHEM_IUPAC_NAME_MARKUP>
4-[4-(1,3-benzoxazol-2-ylamino)phenyl]-6-[3-(dimethylamino)propoxy]-2,3-dihydroisoindol-1-one

> <PUBCHEM_IUPAC_NAME>
4-[4-(1,3-benzoxazol-2-ylamino)phenyl]-6-[3-(dimethylamino)propoxy]-2,3-dihydroisoindol-1-one

> <PUBCHEM_IUPAC_SYSTEMATIC_NAME>
4-[4-(1,3-benzoxazol-2-ylamino)phenyl]-6-[3-(dimethylamino)propoxy]-2,3-dihydroisoindol-1-one

> <PUBCHEM_IUPAC_TRADITIONAL_NAME>
4-[4-(1,3-benzoxazol-2-ylamino)phenyl]-6-[3-(dimethylamino)propoxy]isoindolin-1-one

> <PUBCHEM_IUPAC_INCHI>
InChI=1S/C26H26N4O3/c1-30(2)12-5-13-32-19-14-20(22-16-27-25(31)21(22)15-19)17-8-10-18(11-9-17)28-26-29-23-6-3-4-7-24(23)33-26/h3-4,6-11,14-15H,5,12-13,16H2,1-2H3,(H,27,31)(H,28,29)

> <PUBCHEM_IUPAC_INCHIKEY>
DZGATJHVQUFYSK-UHFFFAOYSA-N

> <PUBCHEM_XLOGP3_AA>
4.5

> <PUBCHEM_EXACT_MASS>
442.20049070

> <PUBCHEM_MOLECULAR_FORMULA>
C26H26N4O3

> <PUBCHEM_MOLECULAR_WEIGHT>
442.5

> <PUBCHEM_SMILES>
CN(C)CCCOC1=CC(=C2CNC(=O)C2=C1)C3=CC=C(C=C3)NC4=NC5=CC=CC=C5O4

> <PUBCHEM_OPENEYE_CAN_SMILES>
CN(C)CCCOC1=CC(=C2CNC(=O)C2=C1)C3=CC=C(C=C3)NC4=NC5=CC=CC=C5O4

> <PUBCHEM_OPENEYE_ISO_SMILES>
CN(C)CCCOC1=CC(=C2CNC(=O)C2=C1)C3=CC=C(C=C3)NC4=NC5=CC=CC=C5O4

> <PUBCHEM_CACTVS_TPSA>
79.6

> <PUBCHEM_MONOISOTOPIC_WEIGHT>
442.20049070

> <PUBCHEM_TOTAL_CHARGE>
0

> <PUBCHEM_HEAVY_ATOM_COUNT>
33

> <PUBCHEM_ATOM_DEF_STEREO_COUNT>
0

> <PUBCHEM_ATOM_UDEF_STEREO_COUNT>
0

> <PUBCHEM_BOND_DEF_STEREO_COUNT>
0

> <PUBCHEM_BOND_UDEF_STEREO_COUNT>
0

> <PUBCHEM_ISOTOPIC_ATOM_COUNT>
0

> <PUBCHEM_COMPONENT_COUNT>
1

> <PUBCHEM_CACTVS_TAUTO_COUNT>
-1

> <PUBCHEM_COORDINATE_TYPE>
1
5
255

> <PUBCHEM_BONDANNOTATIONS>
10  14  8
12  13  8
12  14  8
16  20  8
16  21  8
20  23  8
21  24  8
22  23  8
22  24  8
28  29  8
28  30  8
29  31  8
3  27  8
3  28  8
30  32  8
31  33  8
32  33  8
7  27  8
7  29  8
8  10  8
8  9  8
9  13  8

$$$$
