87939151
  -OEChem-03202502572D

 35 37  0     0  0  0  0  0  0999 V2000
    5.8772    1.5046    0.0000 O   0  0  0  0  0  0  0  0  0  0  0  0
    6.6032   -1.9399    0.0000 O   0  0  0  0  0  0  0  0  0  0  0  0
    7.3701    0.5314    0.0000 N   0  0  0  0  0  0  0  0  0  0  0  0
    7.5763   -0.4471    0.0000 N   0  0  0  0  0  0  0  0  0  0  0  0
    4.6783   -3.0414    0.0000 N   0  0  0  0  0  0  0  0  0  0  0  0
    5.9674   -0.2752    0.0000 C   0  0  0  0  0  0  0  0  0  0  0  0
    4.6783   -1.4319    0.0000 C   0  0  0  0  0  0  0  0  0  0  0  0
    6.3758    0.6377    0.0000 C   0  0  0  0  0  0  0  0  0  0  0  0
    6.3788    2.3697    0.0000 C   0  0  0  0  0  0  0  0  0  0  0  0
    3.7320   -1.7366    0.0000 C   0  0  0  0  0  0  0  0  0  0  0  0
    4.9889   -0.4814    0.0000 C   0  0  0  0  0  0  0  0  0  0  0  0
    3.7320   -2.7366    0.0000 C   0  0  0  0  0  0  0  0  0  0  0  0
    6.7094   -0.9456    0.0000 C   0  0  0  0  0  0  0  0  0  0  0  0
    5.2619   -2.2366    0.0000 C   0  0  0  0  0  0  0  0  0  0  0  0
    5.8802    3.2366    0.0000 C   0  0  0  0  0  0  0  0  0  0  0  0
    7.3788    2.3680    0.0000 C   0  0  0  0  0  0  0  0  0  0  0  0
    2.8660   -1.2366    0.0000 C   0  0  0  0  0  0  0  0  0  0  0  0
    2.8660   -3.2366    0.0000 C   0  0  0  0  0  0  0  0  0  0  0  0
    2.0000   -1.7366    0.0000 C   0  0  0  0  0  0  0  0  0  0  0  0
    2.0000   -2.7366    0.0000 C   0  0  0  0  0  0  0  0  0  0  0  0
    6.6878    1.8323    0.0000 H   0  0  0  0  0  0  0  0  0  0  0  0
    4.5749   -0.0199    0.0000 H   0  0  0  0  0  0  0  0  0  0  0  0
    7.7858    0.9915    0.0000 H   0  0  0  0  0  0  0  0  0  0  0  0
    5.8819   -2.2366    0.0000 H   0  0  0  0  0  0  0  0  0  0  0  0
    8.1423   -0.7002    0.0000 H   0  0  0  0  0  0  0  0  0  0  0  0
    6.4177    3.5457    0.0000 H   0  0  0  0  0  0  0  0  0  0  0  0
    5.5712    3.7741    0.0000 H   0  0  0  0  0  0  0  0  0  0  0  0
    5.3428    2.9276    0.0000 H   0  0  0  0  0  0  0  0  0  0  0  0
    7.3777    1.7480    0.0000 H   0  0  0  0  0  0  0  0  0  0  0  0
    7.9988    2.3669    0.0000 H   0  0  0  0  0  0  0  0  0  0  0  0
    7.3798    2.9880    0.0000 H   0  0  0  0  0  0  0  0  0  0  0  0
    2.8660   -0.6166    0.0000 H   0  0  0  0  0  0  0  0  0  0  0  0
    2.8660   -3.8566    0.0000 H   0  0  0  0  0  0  0  0  0  0  0  0
    1.4631   -1.4266    0.0000 H   0  0  0  0  0  0  0  0  0  0  0  0
    1.4631   -3.0466    0.0000 H   0  0  0  0  0  0  0  0  0  0  0  0
  1  8  1  0  0  0  0
  1  9  1  0  0  0  0
  2 13  2  0  0  0  0
  3  4  1  0  0  0  0
  3  8  1  0  0  0  0
  3 23  1  0  0  0  0
  4 13  1  0  0  0  0
  4 25  1  0  0  0  0
  5 12  1  0  0  0  0
  5 14  2  0  0  0  0
  6  8  2  0  0  0  0
  6 11  1  0  0  0  0
  6 13  1  0  0  0  0
  7 10  1  0  0  0  0
  7 11  2  0  0  0  0
  7 14  1  0  0  0  0
  9 15  1  0  0  0  0
  9 16  1  0  0  0  0
  9 21  1  0  0  0  0
 10 12  1  0  0  0  0
 10 17  2  0  0  0  0
 11 22  1  0  0  0  0
 12 18  2  0  0  0  0
 14 24  1  0  0  0  0
 15 26  1  0  0  0  0
 15 27  1  0  0  0  0
 15 28  1  0  0  0  0
 16 29  1  0  0  0  0
 16 30  1  0  0  0  0
 16 31  1  0  0  0  0
 17 19  1  0  0  0  0
 17 32  1  0  0  0  0
 18 20  1  0  0  0  0
 18 33  1  0  0  0  0
 19 20  2  0  0  0  0
 19 34  1  0  0  0  0
 20 35  1  0  0  0  0
M  END
> <PUBCHEM_COMPOUND_CID>
87939151

> <PUBCHEM_COMPOUND_CANONICALIZED>
1

> <PUBCHEM_CACTVS_COMPLEXITY>
505

> <PUBCHEM_CACTVS_HBOND_ACCEPTOR>
4

> <PUBCHEM_CACTVS_HBOND_DONOR>
2

> <PUBCHEM_CACTVS_ROTATABLE_BOND>
3

> <PUBCHEM_CACTVS_SUBSKEYS>
AAADccBzMAAAAAAAAAAAAAAAAAAAAQIAAAAwAAAAAAAAAEABAAAAHgAYAAAADBzhmAYywIJiBACoAjVzVACCCAAgIgIaqAEgZNkIICKAkZGIIABggAAIyEcQgIAOAAAAAAACAAAAAAAAAAQAAAAAAAAAAA==

> <PUBCHEM_IUPAC_OPENEYE_NAME>
4-[(Z)-indol-3-ylidenemethyl]-5-isopropoxy-1,2-dihydropyrazol-3-one

> <PUBCHEM_IUPAC_CAS_NAME>
4-[(Z)-3-indolylidenemethyl]-5-propan-2-yloxy-1,2-dihydropyrazol-3-one

> <PUBCHEM_IUPAC_NAME_MARKUP>
4-[(<I>Z</I>)-indol-3-ylidenemethyl]-5-propan-2-yloxy-1,2-dihydropyrazol-3-one

> <PUBCHEM_IUPAC_NAME>
4-[(Z)-indol-3-ylidenemethyl]-5-propan-2-yloxy-1,2-dihydropyrazol-3-one

> <PUBCHEM_IUPAC_SYSTEMATIC_NAME>
4-[(Z)-indol-3-ylidenemethyl]-5-propan-2-yloxy-1,2-dihydropyrazol-3-one

> <PUBCHEM_IUPAC_TRADITIONAL_NAME>
4-[(Z)-indol-3-ylidenemethyl]-5-isopropoxy-3-pyrazolin-3-one

> <PUBCHEM_IUPAC_INCHI>
InChI=1S/C15H15N3O2/c1-9(2)20-15-12(14(19)17-18-15)7-10-8-16-13-6-4-3-5-11(10)13/h3-9H,1-2H3,(H2,17,18,19)/b10-7+

> <PUBCHEM_IUPAC_INCHIKEY>
QKPDVBMGXRXXAH-JXMROGBWSA-N

> <PUBCHEM_XLOGP3_AA>
2

> <PUBCHEM_EXACT_MASS>
269.116426730

> <PUBCHEM_MOLECULAR_FORMULA>
C15H15N3O2

> <PUBCHEM_MOLECULAR_WEIGHT>
269.30

> <PUBCHEM_SMILES>
CC(C)OC1=C(C(=O)NN1)/C=C/2\C=NC3=CC=CC=C32

> <PUBCHEM_OPENEYE_CAN_SMILES>
CC(C)OC1=C(C(=O)NN1)C=C2C=NC3=CC=CC=C32

> <PUBCHEM_OPENEYE_ISO_SMILES>
CC(C)OC1=C(C(=O)NN1)/C=C/2\C=NC3=CC=CC=C32

> <PUBCHEM_CACTVS_TPSA>
62.7

> <PUBCHEM_MONOISOTOPIC_WEIGHT>
269.116426730

> <PUBCHEM_TOTAL_CHARGE>
0

> <PUBCHEM_HEAVY_ATOM_COUNT>
20

> <PUBCHEM_ATOM_DEF_STEREO_COUNT>
0

> <PUBCHEM_ATOM_UDEF_STEREO_COUNT>
0

> <PUBCHEM_BOND_DEF_STEREO_COUNT>
1

> <PUBCHEM_BOND_UDEF_STEREO_COUNT>
0

> <PUBCHEM_ISOTOPIC_ATOM_COUNT>
0

> <PUBCHEM_COMPONENT_COUNT>
1

> <PUBCHEM_CACTVS_TAUTO_COUNT>
-1

> <PUBCHEM_COORDINATE_TYPE>
1
5
255

> <PUBCHEM_BONDANNOTATIONS>
10  12  8
10  17  8
12  18  8
17  19  8
18  20  8
19  20  8
3  4  8
3  8  8
4  13  8
6  13  8
6  8  8

$$$$
