57325478
  -OEChem-03202500422D

 45 46  0     1  0  0  0  0  0999 V2000
    5.4641    5.9050    0.0000 Cl  0  0  0  0  0  0  0  0  0  0  0  0
    6.3301   -4.5950    0.0000 O   0  0  0  0  0  0  0  0  0  0  0  0
    2.8660    0.4050    0.0000 O   0  0  0  0  0  0  0  0  0  0  0  0
    8.0622   -5.5950    0.0000 O   0  0  0  0  0  0  0  0  0  0  0  0
    7.1962   -1.0950    0.0000 O   0  0  0  0  0  0  0  0  0  0  0  0
    6.3301   -2.5950    0.0000 N   0  0  0  0  0  0  0  0  0  0  0  0
    7.1962   -4.0950    0.0000 C   0  0  2  0  0  0  0  0  0  0  0  0
    7.1962   -3.0950    0.0000 C   0  0  0  0  0  0  0  0  0  0  0  0
    5.4641   -1.0950    0.0000 C   0  0  0  0  0  0  0  0  0  0  0  0
    4.5981    0.4050    0.0000 C   0  0  0  0  0  0  0  0  0  0  0  0
    8.0622   -4.5950    0.0000 C   0  0  0  0  0  0  0  0  0  0  0  0
    6.3301   -1.5950    0.0000 C   0  0  0  0  0  0  0  0  0  0  0  0
    5.4641   -0.0950    0.0000 C   0  0  0  0  0  0  0  0  0  0  0  0
    3.7320   -0.0950    0.0000 C   0  0  0  0  0  0  0  0  0  0  0  0
    4.5981   -1.5950    0.0000 C   0  0  0  0  0  0  0  0  0  0  0  0
    3.7320   -1.0950    0.0000 C   0  0  0  0  0  0  0  0  0  0  0  0
    4.5981    1.4050    0.0000 C   0  0  0  0  0  0  0  0  0  0  0  0
    5.4641    1.9050    0.0000 C   0  0  0  0  0  0  0  0  0  0  0  0
    5.4641    2.9050    0.0000 C   0  0  0  0  0  0  0  0  0  0  0  0
    4.5981    3.4050    0.0000 C   0  0  0  0  0  0  0  0  0  0  0  0
    6.3301    3.4050    0.0000 C   0  0  0  0  0  0  0  0  0  0  0  0
    4.5981    4.4050    0.0000 C   0  0  0  0  0  0  0  0  0  0  0  0
    6.3301    4.4050    0.0000 C   0  0  0  0  0  0  0  0  0  0  0  0
    2.0000   -0.0950    0.0000 C   0  0  0  0  0  0  0  0  0  0  0  0
    5.4641    4.9050    0.0000 C   0  0  0  0  0  0  0  0  0  0  0  0
    6.6592   -3.7850    0.0000 H   0  0  0  0  0  0  0  0  0  0  0  0
    7.8067   -3.2027    0.0000 H   0  0  0  0  0  0  0  0  0  0  0  0
    7.4082   -2.5124    0.0000 H   0  0  0  0  0  0  0  0  0  0  0  0
    5.7932   -2.9050    0.0000 H   0  0  0  0  0  0  0  0  0  0  0  0
    8.6728   -4.7027    0.0000 H   0  0  0  0  0  0  0  0  0  0  0  0
    8.2742   -4.0124    0.0000 H   0  0  0  0  0  0  0  0  0  0  0  0
    6.0010    0.2150    0.0000 H   0  0  0  0  0  0  0  0  0  0  0  0
    4.5981   -2.2150    0.0000 H   0  0  0  0  0  0  0  0  0  0  0  0
    3.1951   -1.4050    0.0000 H   0  0  0  0  0  0  0  0  0  0  0  0
    4.0611    1.7150    0.0000 H   0  0  0  0  0  0  0  0  0  0  0  0
    6.0010    1.5950    0.0000 H   0  0  0  0  0  0  0  0  0  0  0  0
    6.3301   -5.2150    0.0000 H   0  0  0  0  0  0  0  0  0  0  0  0
    8.5991   -5.9050    0.0000 H   0  0  0  0  0  0  0  0  0  0  0  0
    4.0611    3.0950    0.0000 H   0  0  0  0  0  0  0  0  0  0  0  0
    6.8671    3.0950    0.0000 H   0  0  0  0  0  0  0  0  0  0  0  0
    4.0611    4.7150    0.0000 H   0  0  0  0  0  0  0  0  0  0  0  0
    6.8671    4.7150    0.0000 H   0  0  0  0  0  0  0  0  0  0  0  0
    1.6900    0.4419    0.0000 H   0  0  0  0  0  0  0  0  0  0  0  0
    1.4631   -0.4050    0.0000 H   0  0  0  0  0  0  0  0  0  0  0  0
    2.3100   -0.6319    0.0000 H   0  0  0  0  0  0  0  0  0  0  0  0
  1 25  1  0  0  0  0
  7  2  1  6  0  0  0
  2 37  1  0  0  0  0
  3 14  1  0  0  0  0
  3 24  1  0  0  0  0
  4 11  1  0  0  0  0
  4 38  1  0  0  0  0
  5 12  2  0  0  0  0
  6  8  1  0  0  0  0
  6 12  1  0  0  0  0
  6 29  1  0  0  0  0
  7  8  1  0  0  0  0
  7 11  1  0  0  0  0
  7 26  1  0  0  0  0
  8 27  1  0  0  0  0
  8 28  1  0  0  0  0
  9 12  1  0  0  0  0
  9 13  2  0  0  0  0
  9 15  1  0  0  0  0
 10 13  1  0  0  0  0
 10 14  2  0  0  0  0
 10 17  1  0  0  0  0
 11 30  1  0  0  0  0
 11 31  1  0  0  0  0
 13 32  1  0  0  0  0
 14 16  1  0  0  0  0
 15 16  2  0  0  0  0
 15 33  1  0  0  0  0
 16 34  1  0  0  0  0
 17 18  2  0  0  0  0
 17 35  1  0  0  0  0
 18 19  1  0  0  0  0
 18 36  1  0  0  0  0
 19 20  2  0  0  0  0
 19 21  1  0  0  0  0
 20 22  1  0  0  0  0
 20 39  1  0  0  0  0
 21 23  2  0  0  0  0
 21 40  1  0  0  0  0
 22 25  2  0  0  0  0
 22 41  1  0  0  0  0
 23 25  1  0  0  0  0
 23 42  1  0  0  0  0
 24 43  1  0  0  0  0
 24 44  1  0  0  0  0
 24 45  1  0  0  0  0
M  END
> <PUBCHEM_COMPOUND_CID>
57325478

> <PUBCHEM_COMPOUND_CANONICALIZED>
1

> <PUBCHEM_CACTVS_COMPLEXITY>
437

> <PUBCHEM_CACTVS_HBOND_ACCEPTOR>
4

> <PUBCHEM_CACTVS_HBOND_DONOR>
3

> <PUBCHEM_CACTVS_ROTATABLE_BOND>
7

> <PUBCHEM_CACTVS_SUBSKEYS>
AAADceB6OAAEAAAAAAAAAAAAAAAAAAAAAAAwYAAAAAAAAAABQAAAHgIQCAAADBbhmCYyBoLABgCIAiFSEACCCAAkJQAIiIEODsgPNjKFtxuEcShm1hGZqYeY3GLOJAACAAAIAABIAAQAABAAAAAAAAAAAA==

> <PUBCHEM_IUPAC_OPENEYE_NAME>
3-[(E)-2-(4-chlorophenyl)vinyl]-N-[(2R)-2,3-dihydroxypropyl]-4-methoxy-benzamide

> <PUBCHEM_IUPAC_CAS_NAME>
3-[(E)-2-(4-chlorophenyl)ethenyl]-N-[(2R)-2,3-dihydroxypropyl]-4-methoxybenzamide

> <PUBCHEM_IUPAC_NAME_MARKUP>
3-[(<I>E</I>)-2-(4-chlorophenyl)ethenyl]-<I>N</I>-[(2<I>R</I>)-2,3-dihydroxypropyl]-4-methoxybenzamide

> <PUBCHEM_IUPAC_NAME>
3-[(E)-2-(4-chlorophenyl)ethenyl]-N-[(2R)-2,3-dihydroxypropyl]-4-methoxybenzamide

> <PUBCHEM_IUPAC_SYSTEMATIC_NAME>
N-[(2R)-2,3-bis(oxidanyl)propyl]-3-[(E)-2-(4-chlorophenyl)ethenyl]-4-methoxy-benzamide

> <PUBCHEM_IUPAC_TRADITIONAL_NAME>
3-[(E)-2-(4-chlorophenyl)vinyl]-N-[(2R)-2,3-dihydroxypropyl]-4-methoxy-benzamide

> <PUBCHEM_IUPAC_INCHI>
InChI=1S/C19H20ClNO4/c1-25-18-9-6-15(19(24)21-11-17(23)12-22)10-14(18)5-2-13-3-7-16(20)8-4-13/h2-10,17,22-23H,11-12H2,1H3,(H,21,24)/b5-2+/t17-/m1/s1

> <PUBCHEM_IUPAC_INCHIKEY>
FRFTWFWYLIBTEB-WAUBUAMCSA-N

> <PUBCHEM_XLOGP3_AA>
2.8

> <PUBCHEM_EXACT_MASS>
361.1080858

> <PUBCHEM_MOLECULAR_FORMULA>
C19H20ClNO4

> <PUBCHEM_MOLECULAR_WEIGHT>
361.8

> <PUBCHEM_SMILES>
COC1=C(C=C(C=C1)C(=O)NC[C@H](CO)O)/C=C/C2=CC=C(C=C2)Cl

> <PUBCHEM_OPENEYE_CAN_SMILES>
COC1=C(C=C(C=C1)C(=O)NCC(CO)O)C=CC2=CC=C(C=C2)Cl

> <PUBCHEM_OPENEYE_ISO_SMILES>
COC1=C(C=C(C=C1)C(=O)NC[C@H](CO)O)/C=C/C2=CC=C(C=C2)Cl

> <PUBCHEM_CACTVS_TPSA>
78.8

> <PUBCHEM_MONOISOTOPIC_WEIGHT>
361.1080858

> <PUBCHEM_TOTAL_CHARGE>
0

> <PUBCHEM_HEAVY_ATOM_COUNT>
25

> <PUBCHEM_ATOM_DEF_STEREO_COUNT>
1

> <PUBCHEM_ATOM_UDEF_STEREO_COUNT>
0

> <PUBCHEM_BOND_DEF_STEREO_COUNT>
1

> <PUBCHEM_BOND_UDEF_STEREO_COUNT>
0

> <PUBCHEM_ISOTOPIC_ATOM_COUNT>
0

> <PUBCHEM_COMPONENT_COUNT>
1

> <PUBCHEM_CACTVS_TAUTO_COUNT>
-1

> <PUBCHEM_COORDINATE_TYPE>
1
5
255

> <PUBCHEM_BONDANNOTATIONS>
10  13  8
10  14  8
14  16  8
15  16  8
19  20  8
19  21  8
7  2  6
20  22  8
21  23  8
22  25  8
23  25  8
9  13  8
9  15  8

$$$$
