49830874
  -OEChem-03202502042D

 49 52  0     1  0  0  0  0  0999 V2000
    4.6783   -1.8829    0.0000 N   0  0  0  0  0  0  0  0  0  0  0  0
    4.6318    2.3719    0.0000 N   0  0  0  0  0  0  0  0  0  0  0  0
    7.2566    2.0401    0.0000 N   0  0  0  0  0  0  0  0  0  0  0  0
   11.2637   -2.4257    0.0000 N   0  0  0  0  0  0  0  0  0  0  0  0
    4.9889    0.6771    0.0000 C   0  0  3  0  0  0  0  0  0  0  0  0
    4.6783   -0.2734    0.0000 C   0  0  0  0  0  0  0  0  0  0  0  0
    3.7320   -0.5781    0.0000 C   0  0  0  0  0  0  0  0  0  0  0  0
    3.7320   -1.5781    0.0000 C   0  0  0  0  0  0  0  0  0  0  0  0
    5.2619   -1.0781    0.0000 C   0  0  0  0  0  0  0  0  0  0  0  0
    4.3211    1.4214    0.0000 C   0  0  0  0  0  0  0  0  0  0  0  0
    5.9674    0.8833    0.0000 C   0  0  0  0  0  0  0  0  0  0  0  0
    2.8660   -0.0781    0.0000 C   0  0  0  0  0  0  0  0  0  0  0  0
    2.8660   -2.0781    0.0000 C   0  0  0  0  0  0  0  0  0  0  0  0
    4.9889   -2.8334    0.0000 C   0  0  0  0  0  0  0  0  0  0  0  0
    6.6353    0.1390    0.0000 C   0  0  0  0  0  0  0  0  0  0  0  0
    6.2781    1.8338    0.0000 C   0  0  0  0  0  0  0  0  0  0  0  0
    2.0000   -0.5781    0.0000 C   0  0  0  0  0  0  0  0  0  0  0  0
    2.0000   -1.5781    0.0000 C   0  0  0  0  0  0  0  0  0  0  0  0
    7.6138    0.3452    0.0000 C   0  0  0  0  0  0  0  0  0  0  0  0
    7.9244    1.2958    0.0000 C   0  0  0  0  0  0  0  0  0  0  0  0
    8.2816   -0.3991    0.0000 C   0  0  0  0  0  0  0  0  0  0  0  0
    9.2601   -0.1928    0.0000 C   0  0  0  0  0  0  0  0  0  0  0  0
    9.9280   -0.9371    0.0000 C   0  0  0  0  0  0  0  0  0  0  0  0
    9.6173   -1.8877    0.0000 C   0  0  0  0  0  0  0  0  0  0  0  0
   10.9065   -0.7309    0.0000 C   0  0  0  0  0  0  0  0  0  0  0  0
   10.2852   -2.6320    0.0000 C   0  0  0  0  0  0  0  0  0  0  0  0
   11.5743   -1.4752    0.0000 C   0  0  0  0  0  0  0  0  0  0  0  0
    5.1815    1.2664    0.0000 H   0  0  0  0  0  0  0  0  0  0  0  0
    5.8819   -1.0781    0.0000 H   0  0  0  0  0  0  0  0  0  0  0  0
    3.7742    1.7134    0.0000 H   0  0  0  0  0  0  0  0  0  0  0  0
    3.9385    0.9335    0.0000 H   0  0  0  0  0  0  0  0  0  0  0  0
    2.8660    0.5419    0.0000 H   0  0  0  0  0  0  0  0  0  0  0  0
    2.8660   -2.6981    0.0000 H   0  0  0  0  0  0  0  0  0  0  0  0
    6.4427   -0.4503    0.0000 H   0  0  0  0  0  0  0  0  0  0  0  0
    4.3996   -3.0260    0.0000 H   0  0  0  0  0  0  0  0  0  0  0  0
    5.1815   -3.4227    0.0000 H   0  0  0  0  0  0  0  0  0  0  0  0
    5.5783   -2.6408    0.0000 H   0  0  0  0  0  0  0  0  0  0  0  0
    5.8640    2.2953    0.0000 H   0  0  0  0  0  0  0  0  0  0  0  0
    1.4631   -0.2681    0.0000 H   0  0  0  0  0  0  0  0  0  0  0  0
    1.4631   -1.8881    0.0000 H   0  0  0  0  0  0  0  0  0  0  0  0
    4.2177    2.8334    0.0000 H   0  0  0  0  0  0  0  0  0  0  0  0
    5.2384    2.4998    0.0000 H   0  0  0  0  0  0  0  0  0  0  0  0
    8.5311    1.4236    0.0000 H   0  0  0  0  0  0  0  0  0  0  0  0
    8.0890   -0.9884    0.0000 H   0  0  0  0  0  0  0  0  0  0  0  0
    9.4528    0.3965    0.0000 H   0  0  0  0  0  0  0  0  0  0  0  0
    9.0106   -2.0155    0.0000 H   0  0  0  0  0  0  0  0  0  0  0  0
   11.0991   -0.1416    0.0000 H   0  0  0  0  0  0  0  0  0  0  0  0
   10.0926   -3.2213    0.0000 H   0  0  0  0  0  0  0  0  0  0  0  0
   12.1810   -1.3474    0.0000 H   0  0  0  0  0  0  0  0  0  0  0  0
  1  8  1  0  0  0  0
  1  9  1  0  0  0  0
  1 14  1  0  0  0  0
  2 10  1  0  0  0  0
  2 41  1  0  0  0  0
  2 42  1  0  0  0  0
  3 16  1  0  0  0  0
  3 20  2  0  0  0  0
  4 26  2  0  0  0  0
  4 27  1  0  0  0  0
  5  6  1  0  0  0  0
  5 10  1  0  0  0  0
  5 11  1  0  0  0  0
  5 28  1  0  0  0  0
  6  7  1  0  0  0  0
  6  9  2  0  0  0  0
  7  8  1  0  0  0  0
  7 12  2  0  0  0  0
  8 13  2  0  0  0  0
  9 29  1  0  0  0  0
 10 30  1  0  0  0  0
 10 31  1  0  0  0  0
 11 15  1  0  0  0  0
 11 16  2  0  0  0  0
 12 17  1  0  0  0  0
 12 32  1  0  0  0  0
 13 18  1  0  0  0  0
 13 33  1  0  0  0  0
 14 35  1  0  0  0  0
 14 36  1  0  0  0  0
 14 37  1  0  0  0  0
 15 19  2  0  0  0  0
 15 34  1  0  0  0  0
 16 38  1  0  0  0  0
 17 18  2  0  0  0  0
 17 39  1  0  0  0  0
 18 40  1  0  0  0  0
 19 20  1  0  0  0  0
 19 21  1  0  0  0  0
 20 43  1  0  0  0  0
 21 22  2  3  0  0  0
 21 44  1  0  0  0  0
 22 23  1  0  0  0  0
 22 45  1  0  0  0  0
 23 24  2  0  0  0  0
 23 25  1  0  0  0  0
 24 26  1  0  0  0  0
 24 46  1  0  0  0  0
 25 27  2  0  0  0  0
 25 47  1  0  0  0  0
 26 48  1  0  0  0  0
 27 49  1  0  0  0  0
M  END
> <PUBCHEM_COMPOUND_CID>
49830874

> <PUBCHEM_COMPOUND_CANONICALIZED>
1

> <PUBCHEM_CACTVS_COMPLEXITY>
487

> <PUBCHEM_CACTVS_HBOND_ACCEPTOR>
3

> <PUBCHEM_CACTVS_HBOND_DONOR>
1

> <PUBCHEM_CACTVS_ROTATABLE_BOND>
5

> <PUBCHEM_CACTVS_SUBSKEYS>
AAADceB7gAAAAAAAAAAAAAAAAAAAAWAAAAA8WIAAAAAAAFgB/gAAHAAQAAAADQjBHgQ+wPNMEACgAzRnRACCgCAxAiAI2KA4ZJgIIOLAkZGEIAhgkADIyAcQgMAOgAAAAAACAAAAAAAAAAQAAAAAAAAAAA==

> <PUBCHEM_IUPAC_OPENEYE_NAME>
2-(1-methylindol-3-yl)-2-[5-[2-(4-pyridyl)vinyl]-3-pyridyl]ethanamine

> <PUBCHEM_IUPAC_CAS_NAME>
2-(1-methyl-3-indolyl)-2-[5-(2-pyridin-4-ylethenyl)-3-pyridinyl]ethanamine

> <PUBCHEM_IUPAC_NAME_MARKUP>
2-(1-methylindol-3-yl)-2-[5-(2-pyridin-4-ylethenyl)pyridin-3-yl]ethanamine

> <PUBCHEM_IUPAC_NAME>
2-(1-methylindol-3-yl)-2-[5-(2-pyridin-4-ylethenyl)pyridin-3-yl]ethanamine

> <PUBCHEM_IUPAC_SYSTEMATIC_NAME>
2-(1-methylindol-3-yl)-2-[5-(2-pyridin-4-ylethenyl)pyridin-3-yl]ethanamine

> <PUBCHEM_IUPAC_TRADITIONAL_NAME>
[2-(1-methylindol-3-yl)-2-[5-[2-(4-pyridyl)vinyl]-3-pyridyl]ethyl]amine

> <PUBCHEM_IUPAC_INCHI>
InChI=1S/C23H22N4/c1-27-16-22(20-4-2-3-5-23(20)27)21(13-24)19-12-18(14-26-15-19)7-6-17-8-10-25-11-9-17/h2-12,14-16,21H,13,24H2,1H3

> <PUBCHEM_IUPAC_INCHIKEY>
SJDGHXXYFFXVPE-UHFFFAOYSA-N

> <PUBCHEM_XLOGP3_AA>
2.9

> <PUBCHEM_EXACT_MASS>
354.18444672

> <PUBCHEM_MOLECULAR_FORMULA>
C23H22N4

> <PUBCHEM_MOLECULAR_WEIGHT>
354.4

> <PUBCHEM_SMILES>
CN1C=C(C2=CC=CC=C21)C(CN)C3=CN=CC(=C3)C=CC4=CC=NC=C4

> <PUBCHEM_OPENEYE_CAN_SMILES>
CN1C=C(C2=CC=CC=C21)C(CN)C3=CN=CC(=C3)C=CC4=CC=NC=C4

> <PUBCHEM_OPENEYE_ISO_SMILES>
CN1C=C(C2=CC=CC=C21)C(CN)C3=CN=CC(=C3)C=CC4=CC=NC=C4

> <PUBCHEM_CACTVS_TPSA>
56.7

> <PUBCHEM_MONOISOTOPIC_WEIGHT>
354.18444672

> <PUBCHEM_TOTAL_CHARGE>
0

> <PUBCHEM_HEAVY_ATOM_COUNT>
27

> <PUBCHEM_ATOM_DEF_STEREO_COUNT>
0

> <PUBCHEM_ATOM_UDEF_STEREO_COUNT>
1

> <PUBCHEM_BOND_DEF_STEREO_COUNT>
0

> <PUBCHEM_BOND_UDEF_STEREO_COUNT>
1

> <PUBCHEM_ISOTOPIC_ATOM_COUNT>
0

> <PUBCHEM_COMPONENT_COUNT>
1

> <PUBCHEM_CACTVS_TAUTO_COUNT>
-1

> <PUBCHEM_COORDINATE_TYPE>
1
5
255

> <PUBCHEM_BONDANNOTATIONS>
1  8  8
1  9  8
11  15  8
11  16  8
12  17  8
13  18  8
15  19  8
17  18  8
19  20  8
21  22  1
23  24  8
23  25  8
24  26  8
25  27  8
3  16  8
3  20  8
4  26  8
4  27  8
5  10  3
6  7  8
6  9  8
7  12  8
7  8  8
8  13  8

$$$$
