18516271
  -OEChem-03202500492D

 29 31  0     0  0  0  0  0  0999 V2000
    6.4103   -2.6032    0.0000 S   0  0  0  0  0  0  0  0  0  0  0  0
    2.8660    3.2015    0.0000 F   0  0  0  0  0  0  0  0  0  0  0  0
    4.5981    0.2015    0.0000 O   0  0  0  0  0  0  0  0  0  0  0  0
    8.4939   -0.9325    0.0000 O   0  0  0  0  0  0  0  0  0  0  0  0
    3.7320   -2.2985    0.0000 N   0  0  0  0  0  0  0  0  0  0  0  0
    8.4939   -2.6645    0.0000 N   0  0  0  0  0  0  0  0  0  0  0  0
    5.4641   -1.2985    0.0000 C   0  0  0  0  0  0  0  0  0  0  0  0
    5.4641   -2.2985    0.0000 C   0  0  0  0  0  0  0  0  0  0  0  0
    4.5981   -0.7985    0.0000 C   0  0  0  0  0  0  0  0  0  0  0  0
    6.4103   -0.9938    0.0000 C   0  0  0  0  0  0  0  0  0  0  0  0
    6.9939   -1.7985    0.0000 C   0  0  0  0  0  0  0  0  0  0  0  0
    4.5981   -2.7985    0.0000 C   0  0  0  0  0  0  0  0  0  0  0  0
    3.7320   -1.2985    0.0000 C   0  0  0  0  0  0  0  0  0  0  0  0
    3.7320    0.7015    0.0000 C   0  0  0  0  0  0  0  0  0  0  0  0
    7.9939   -1.7985    0.0000 C   0  0  0  0  0  0  0  0  0  0  0  0
    3.7320    1.7015    0.0000 C   0  0  0  0  0  0  0  0  0  0  0  0
    2.8660    0.2015    0.0000 C   0  0  0  0  0  0  0  0  0  0  0  0
    2.8660    2.2015    0.0000 C   0  0  0  0  0  0  0  0  0  0  0  0
    2.0000    0.7015    0.0000 C   0  0  0  0  0  0  0  0  0  0  0  0
    2.0000    1.7015    0.0000 C   0  0  0  0  0  0  0  0  0  0  0  0
    6.6029   -0.4045    0.0000 H   0  0  0  0  0  0  0  0  0  0  0  0
    4.5981   -3.4185    0.0000 H   0  0  0  0  0  0  0  0  0  0  0  0
    3.1951   -0.9885    0.0000 H   0  0  0  0  0  0  0  0  0  0  0  0
    4.2690    2.0115    0.0000 H   0  0  0  0  0  0  0  0  0  0  0  0
    2.8660   -0.4185    0.0000 H   0  0  0  0  0  0  0  0  0  0  0  0
    1.4631    0.3915    0.0000 H   0  0  0  0  0  0  0  0  0  0  0  0
    1.4631    2.0115    0.0000 H   0  0  0  0  0  0  0  0  0  0  0  0
    9.1139   -2.6645    0.0000 H   0  0  0  0  0  0  0  0  0  0  0  0
    8.1839   -3.2015    0.0000 H   0  0  0  0  0  0  0  0  0  0  0  0
  1  8  1  0  0  0  0
  1 11  1  0  0  0  0
  2 18  1  0  0  0  0
  3  9  1  0  0  0  0
  3 14  1  0  0  0  0
  4 15  2  0  0  0  0
  5 12  2  0  0  0  0
  5 13  1  0  0  0  0
  6 15  1  0  0  0  0
  6 28  1  0  0  0  0
  6 29  1  0  0  0  0
  7  8  2  0  0  0  0
  7  9  1  0  0  0  0
  7 10  1  0  0  0  0
  8 12  1  0  0  0  0
  9 13  2  0  0  0  0
 10 11  2  0  0  0  0
 10 21  1  0  0  0  0
 11 15  1  0  0  0  0
 12 22  1  0  0  0  0
 13 23  1  0  0  0  0
 14 16  2  0  0  0  0
 14 17  1  0  0  0  0
 16 18  1  0  0  0  0
 16 24  1  0  0  0  0
 17 19  2  0  0  0  0
 17 25  1  0  0  0  0
 18 20  2  0  0  0  0
 19 20  1  0  0  0  0
 19 26  1  0  0  0  0
 20 27  1  0  0  0  0
M  END
> <PUBCHEM_COMPOUND_CID>
18516271

> <PUBCHEM_COMPOUND_CANONICALIZED>
1

> <PUBCHEM_CACTVS_COMPLEXITY>
371

> <PUBCHEM_CACTVS_HBOND_ACCEPTOR>
5

> <PUBCHEM_CACTVS_HBOND_DONOR>
1

> <PUBCHEM_CACTVS_ROTATABLE_BOND>
3

> <PUBCHEM_CACTVS_SUBSKEYS>
AAADccBzMQBAAAAAAAAAAAAAAAAAASAAAAA8QAAAAAAAAFgB/AAAHwQQAAAADATB2gw8h9JIFAisAjF3VASDqKA1aDBI2D0vTNgOJnLktZuHOSjkwBH46Ye4XABOAAAAAAAAAAAAAAAAAAAAAAAAAAAAAA==

> <PUBCHEM_IUPAC_OPENEYE_NAME>
4-(3-fluorophenoxy)thieno[2,3-c]pyridine-2-carboxamide

> <PUBCHEM_IUPAC_CAS_NAME>
4-(3-fluorophenoxy)-2-thieno[2,3-c]pyridinecarboxamide

> <PUBCHEM_IUPAC_NAME_MARKUP>
4-(3-fluorophenoxy)thieno[2,3-c]pyridine-2-carboxamide

> <PUBCHEM_IUPAC_NAME>
4-(3-fluorophenoxy)thieno[2,3-c]pyridine-2-carboxamide

> <PUBCHEM_IUPAC_SYSTEMATIC_NAME>
4-(3-fluoranylphenoxy)thieno[2,3-c]pyridine-2-carboxamide

> <PUBCHEM_IUPAC_TRADITIONAL_NAME>
4-(3-fluorophenoxy)thieno[2,3-c]pyridine-2-carboxamide

> <PUBCHEM_IUPAC_INCHI>
InChI=1S/C14H9FN2O2S/c15-8-2-1-3-9(4-8)19-11-6-17-7-13-10(11)5-12(20-13)14(16)18/h1-7H,(H2,16,18)

> <PUBCHEM_IUPAC_INCHIKEY>
TZSJMSZEKQGCBI-UHFFFAOYSA-N

> <PUBCHEM_XLOGP3_AA>
2.7

> <PUBCHEM_EXACT_MASS>
288.03687687

> <PUBCHEM_MOLECULAR_FORMULA>
C14H9FN2O2S

> <PUBCHEM_MOLECULAR_WEIGHT>
288.30

> <PUBCHEM_SMILES>
C1=CC(=CC(=C1)F)OC2=CN=CC3=C2C=C(S3)C(=O)N

> <PUBCHEM_OPENEYE_CAN_SMILES>
C1=CC(=CC(=C1)F)OC2=CN=CC3=C2C=C(S3)C(=O)N

> <PUBCHEM_OPENEYE_ISO_SMILES>
C1=CC(=CC(=C1)F)OC2=CN=CC3=C2C=C(S3)C(=O)N

> <PUBCHEM_CACTVS_TPSA>
93.5

> <PUBCHEM_MONOISOTOPIC_WEIGHT>
288.03687687

> <PUBCHEM_TOTAL_CHARGE>
0

> <PUBCHEM_HEAVY_ATOM_COUNT>
20

> <PUBCHEM_ATOM_DEF_STEREO_COUNT>
0

> <PUBCHEM_ATOM_UDEF_STEREO_COUNT>
0

> <PUBCHEM_BOND_DEF_STEREO_COUNT>
0

> <PUBCHEM_BOND_UDEF_STEREO_COUNT>
0

> <PUBCHEM_ISOTOPIC_ATOM_COUNT>
0

> <PUBCHEM_COMPONENT_COUNT>
1

> <PUBCHEM_CACTVS_TAUTO_COUNT>
-1

> <PUBCHEM_COORDINATE_TYPE>
1
5
255

> <PUBCHEM_BONDANNOTATIONS>
1  11  8
1  8  8
10  11  8
14  16  8
14  17  8
16  18  8
17  19  8
18  20  8
19  20  8
5  12  8
5  13  8
7  10  8
7  8  8
7  9  8
8  12  8
9  13  8

$$$$
