49830381
  -OEChem-03202501072D

 51 55  0     0  0  0  0  0  0999 V2000
   13.1972   -0.0641    0.0000 S   0  0  0  0  0  0  0  0  0  0  0  0
    7.1923    0.6305    0.0000 O   0  0  0  0  0  0  0  0  0  0  0  0
    8.0641    2.1271    0.0000 N   0  0  0  0  0  0  0  0  0  0  0  0
   13.2286   -1.9109    0.0000 N   0  0  0  0  0  0  0  0  0  0  0  0
   11.5973   -2.6464    0.0000 N   0  0  0  0  0  0  0  0  0  0  0  0
   10.1893   -1.5825    0.0000 N   0  0  0  0  0  0  0  0  0  0  0  0
    6.3320    2.1338    0.0000 N   0  0  0  0  0  0  0  0  0  0  0  0
   11.5942    2.1030    0.0000 C   0  0  0  0  0  0  0  0  0  0  0  0
   12.4602    1.6030    0.0000 C   0  0  0  0  0  0  0  0  0  0  0  0
   11.5942    0.1030    0.0000 C   0  0  0  0  0  0  0  0  0  0  0  0
   10.7282    1.6030    0.0000 C   0  0  0  0  0  0  0  0  0  0  0  0
   10.7282    0.6030    0.0000 C   0  0  0  0  0  0  0  0  0  0  0  0
   12.4602    0.6030    0.0000 C   0  0  0  0  0  0  0  0  0  0  0  0
   11.8034   -0.8689    0.0000 C   0  0  0  0  0  0  0  0  0  0  0  0
    9.8342    2.1376    0.0000 C   0  0  0  0  0  0  0  0  0  0  0  0
    9.8342    0.0683    0.0000 C   0  0  0  0  0  0  0  0  0  0  0  0
   12.7921   -0.9719    0.0000 C   0  0  0  0  0  0  0  0  0  0  0  0
    8.9282    1.6238    0.0000 C   0  0  0  0  0  0  0  0  0  0  0  0
    8.9282    0.5821    0.0000 C   0  0  0  0  0  0  0  0  0  0  0  0
   11.1826   -1.6976    0.0000 C   0  0  0  0  0  0  0  0  0  0  0  0
   12.6272   -2.7538    0.0000 C   0  0  0  0  0  0  0  0  0  0  0  0
    7.1961    1.6304    0.0000 C   0  0  0  0  0  0  0  0  0  0  0  0
    5.4641    1.6371    0.0000 C   0  0  0  0  0  0  0  0  0  0  0  0
    3.7320    1.6438    0.0000 C   0  0  0  0  0  0  0  0  0  0  0  0
    4.6000    2.1404    0.0000 C   0  0  0  0  0  0  0  0  0  0  0  0
    2.8680    2.1471    0.0000 C   0  0  0  0  0  0  0  0  0  0  0  0
    5.4602    0.6371    0.0000 C   0  0  0  0  0  0  0  0  0  0  0  0
    3.7282    0.6438    0.0000 C   0  0  0  0  0  0  0  0  0  0  0  0
    4.5923    0.1405    0.0000 C   0  0  0  0  0  0  0  0  0  0  0  0
    2.0000    1.6505    0.0000 C   0  0  0  0  0  0  0  0  0  0  0  0
   11.9927    2.5779    0.0000 H   0  0  0  0  0  0  0  0  0  0  0  0
   11.1957    2.5779    0.0000 H   0  0  0  0  0  0  0  0  0  0  0  0
   13.0708    1.4953    0.0000 H   0  0  0  0  0  0  0  0  0  0  0  0
   12.6723    2.1856    0.0000 H   0  0  0  0  0  0  0  0  0  0  0  0
    9.8414    2.7576    0.0000 H   0  0  0  0  0  0  0  0  0  0  0  0
    9.8414   -0.5517    0.0000 H   0  0  0  0  0  0  0  0  0  0  0  0
    8.3924    0.2701    0.0000 H   0  0  0  0  0  0  0  0  0  0  0  0
    8.0664    2.7471    0.0000 H   0  0  0  0  0  0  0  0  0  0  0  0
   12.8820   -3.3190    0.0000 H   0  0  0  0  0  0  0  0  0  0  0  0
    9.8195   -2.0801    0.0000 H   0  0  0  0  0  0  0  0  0  0  0  0
    9.9432   -1.0134    0.0000 H   0  0  0  0  0  0  0  0  0  0  0  0
    6.3344    2.7538    0.0000 H   0  0  0  0  0  0  0  0  0  0  0  0
    4.6024    2.7604    0.0000 H   0  0  0  0  0  0  0  0  0  0  0  0
    3.2683    2.6205    0.0000 H   0  0  0  0  0  0  0  0  0  0  0  0
    2.4712    2.6236    0.0000 H   0  0  0  0  0  0  0  0  0  0  0  0
    5.9960    0.3251    0.0000 H   0  0  0  0  0  0  0  0  0  0  0  0
    3.1901    0.3359    0.0000 H   0  0  0  0  0  0  0  0  0  0  0  0
    4.5899   -0.4795    0.0000 H   0  0  0  0  0  0  0  0  0  0  0  0
    1.6921    2.1886    0.0000 H   0  0  0  0  0  0  0  0  0  0  0  0
    1.4619    1.3425    0.0000 H   0  0  0  0  0  0  0  0  0  0  0  0
    2.3079    1.1124    0.0000 H   0  0  0  0  0  0  0  0  0  0  0  0
  1 13  1  0  0  0  0
  1 17  1  0  0  0  0
  2 22  2  0  0  0  0
  3 18  1  0  0  0  0
  3 22  1  0  0  0  0
  3 38  1  0  0  0  0
  4 17  2  0  0  0  0
  4 21  1  0  0  0  0
  5 20  1  0  0  0  0
  5 21  2  0  0  0  0
  6 20  1  0  0  0  0
  6 40  1  0  0  0  0
  6 41  1  0  0  0  0
  7 22  1  0  0  0  0
  7 23  1  0  0  0  0
  7 42  1  0  0  0  0
  8  9  1  0  0  0  0
  8 11  1  0  0  0  0
  8 31  1  0  0  0  0
  8 32  1  0  0  0  0
  9 13  1  0  0  0  0
  9 33  1  0  0  0  0
  9 34  1  0  0  0  0
 10 12  1  0  0  0  0
 10 13  2  0  0  0  0
 10 14  1  0  0  0  0
 11 12  2  0  0  0  0
 11 15  1  0  0  0  0
 12 16  1  0  0  0  0
 14 17  1  0  0  0  0
 14 20  2  0  0  0  0
 15 18  2  0  0  0  0
 15 35  1  0  0  0  0
 16 19  2  0  0  0  0
 16 36  1  0  0  0  0
 18 19  1  0  0  0  0
 19 37  1  0  0  0  0
 21 39  1  0  0  0  0
 23 25  1  0  0  0  0
 23 27  2  0  0  0  0
 24 25  2  0  0  0  0
 24 26  1  0  0  0  0
 24 28  1  0  0  0  0
 25 43  1  0  0  0  0
 26 30  1  0  0  0  0
 26 44  1  0  0  0  0
 26 45  1  0  0  0  0
 27 29  1  0  0  0  0
 27 46  1  0  0  0  0
 28 29  2  0  0  0  0
 28 47  1  0  0  0  0
 29 48  1  0  0  0  0
 30 49  1  0  0  0  0
 30 50  1  0  0  0  0
 30 51  1  0  0  0  0
M  END
> <PUBCHEM_COMPOUND_CID>
49830381

> <PUBCHEM_COMPOUND_CANONICALIZED>
1

> <PUBCHEM_CACTVS_COMPLEXITY>
620

> <PUBCHEM_CACTVS_HBOND_ACCEPTOR>
5

> <PUBCHEM_CACTVS_HBOND_DONOR>
3

> <PUBCHEM_CACTVS_ROTATABLE_BOND>
3

> <PUBCHEM_CACTVS_SUBSKEYS>
AAADceB7oABAAAAAAAAAAAAAAAAAASAAAAA8YMEAAAAAAFjB/AAAHgQQAAAADAiBWgQ38dbIEAisAiZjdACD0KlxCrgJ2DAoZJiIKCLg2dGEJAxolAJoyCcQgMAOiAAAQAAQAAAwAAWAACgAAAAAAAAAAA==

> <PUBCHEM_IUPAC_OPENEYE_NAME>
1-(16-amino-11-thia-13,15-diazatetracyclo[8.7.0.02,7.012,17]heptadeca-1(10),2(7),3,5,12,14,16-heptaen-5-yl)-3-(3-ethylphenyl)urea

> <PUBCHEM_IUPAC_CAS_NAME>
1-(16-amino-11-thia-13,15-diazatetracyclo[8.7.0.02,7.012,17]heptadeca-1(10),2(7),3,5,12,14,16-heptaen-5-yl)-3-(3-ethylphenyl)urea

> <PUBCHEM_IUPAC_NAME_MARKUP>
1-(16-amino-11-thia-13,15-diazatetracyclo[8.7.0.0<SUP>2,7</SUP>.0<SUP>12,17</SUP>]heptadeca-1(10),2(7),3,5,12,14,16-heptaen-5-yl)-3-(3-ethylphenyl)urea

> <PUBCHEM_IUPAC_NAME>
1-(16-amino-11-thia-13,15-diazatetracyclo[8.7.0.02,7.012,17]heptadeca-1(10),2(7),3,5,12,14,16-heptaen-5-yl)-3-(3-ethylphenyl)urea

> <PUBCHEM_IUPAC_SYSTEMATIC_NAME>
1-(16-azanyl-11-thia-13,15-diazatetracyclo[8.7.0.02,7.012,17]heptadeca-1(10),2(7),3,5,12,14,16-heptaen-5-yl)-3-(3-ethylphenyl)urea

> <PUBCHEM_IUPAC_TRADITIONAL_NAME>
1-(16-amino-11-thia-13,15-diazatetracyclo[8.7.0.02,7.012,17]heptadeca-1(10),2(7),3,5,12,14,16-heptaen-5-yl)-3-(3-ethylphenyl)urea

> <PUBCHEM_IUPAC_INCHI>
InChI=1S/C23H21N5OS/c1-2-13-4-3-5-15(10-13)27-23(29)28-16-7-8-17-14(11-16)6-9-18-19(17)20-21(24)25-12-26-22(20)30-18/h3-5,7-8,10-12H,2,6,9H2,1H3,(H2,24,25,26)(H2,27,28,29)

> <PUBCHEM_IUPAC_INCHIKEY>
XYXLUJQBBIBJFV-UHFFFAOYSA-N

> <PUBCHEM_XLOGP3_AA>
4.5

> <PUBCHEM_EXACT_MASS>
415.14668148

> <PUBCHEM_MOLECULAR_FORMULA>
C23H21N5OS

> <PUBCHEM_MOLECULAR_WEIGHT>
415.5

> <PUBCHEM_SMILES>
CCC1=CC(=CC=C1)NC(=O)NC2=CC3=C(C=C2)C4=C(CC3)SC5=NC=NC(=C45)N

> <PUBCHEM_OPENEYE_CAN_SMILES>
CCC1=CC(=CC=C1)NC(=O)NC2=CC3=C(C=C2)C4=C(CC3)SC5=NC=NC(=C45)N

> <PUBCHEM_OPENEYE_ISO_SMILES>
CCC1=CC(=CC=C1)NC(=O)NC2=CC3=C(C=C2)C4=C(CC3)SC5=NC=NC(=C45)N

> <PUBCHEM_CACTVS_TPSA>
121

> <PUBCHEM_MONOISOTOPIC_WEIGHT>
415.14668148

> <PUBCHEM_TOTAL_CHARGE>
0

> <PUBCHEM_HEAVY_ATOM_COUNT>
30

> <PUBCHEM_ATOM_DEF_STEREO_COUNT>
0

> <PUBCHEM_ATOM_UDEF_STEREO_COUNT>
0

> <PUBCHEM_BOND_DEF_STEREO_COUNT>
0

> <PUBCHEM_BOND_UDEF_STEREO_COUNT>
0

> <PUBCHEM_ISOTOPIC_ATOM_COUNT>
0

> <PUBCHEM_COMPONENT_COUNT>
1

> <PUBCHEM_CACTVS_TAUTO_COUNT>
-1

> <PUBCHEM_COORDINATE_TYPE>
1
5
255

> <PUBCHEM_BONDANNOTATIONS>
1  13  8
1  17  8
10  13  8
10  14  8
11  12  8
11  15  8
12  16  8
14  17  8
14  20  8
15  18  8
16  19  8
18  19  8
23  25  8
23  27  8
24  25  8
24  28  8
27  29  8
28  29  8
4  17  8
4  21  8
5  20  8
5  21  8

$$$$
