135741883
  -OEChem-03202503572D

 25 27  0     0  0  0  0  0  0999 V2000
    3.4030    2.0000    0.0000 I   0  0  0  0  0  0  0  0  0  0  0  0
    3.4030   -2.0000    0.0000 O   0  0  0  0  0  0  0  0  0  0  0  0
    4.2690   -0.5000    0.0000 N   0  0  0  0  0  0  0  0  0  0  0  0
    5.2152    0.8047    0.0000 N   0  0  0  0  0  0  0  0  0  0  0  0
    2.5369   -0.5000    0.0000 N   0  0  0  0  0  0  0  0  0  0  0  0
    4.2690    0.5000    0.0000 C   0  0  0  0  0  0  0  0  0  0  0  0
    5.7988    0.0000    0.0000 C   0  0  0  0  0  0  0  0  0  0  0  0
    5.2152   -0.8047    0.0000 C   0  0  0  0  0  0  0  0  0  0  0  0
    6.7988   -0.0000    0.0000 C   0  0  0  0  0  0  0  0  0  0  0  0
    3.4030   -1.0000    0.0000 C   0  0  0  0  0  0  0  0  0  0  0  0
    3.4030    1.0000    0.0000 C   0  0  0  0  0  0  0  0  0  0  0  0
    2.5369    0.5000    0.0000 C   0  0  0  0  0  0  0  0  0  0  0  0
    7.2988   -0.8660    0.0000 C   0  0  0  0  0  0  0  0  0  0  0  0
    7.2988    0.8660    0.0000 C   0  0  0  0  0  0  0  0  0  0  0  0
    8.2988   -0.8660    0.0000 C   0  0  0  0  0  0  0  0  0  0  0  0
    8.2988    0.8660    0.0000 C   0  0  0  0  0  0  0  0  0  0  0  0
    8.7988   -0.0000    0.0000 C   0  0  0  0  0  0  0  0  0  0  0  0
    5.4078   -1.3940    0.0000 H   0  0  0  0  0  0  0  0  0  0  0  0
    2.0000   -0.8100    0.0000 H   0  0  0  0  0  0  0  0  0  0  0  0
    2.0000    0.8100    0.0000 H   0  0  0  0  0  0  0  0  0  0  0  0
    6.9888   -1.4030    0.0000 H   0  0  0  0  0  0  0  0  0  0  0  0
    6.9888    1.4030    0.0000 H   0  0  0  0  0  0  0  0  0  0  0  0
    8.6088   -1.4030    0.0000 H   0  0  0  0  0  0  0  0  0  0  0  0
    8.6088    1.4030    0.0000 H   0  0  0  0  0  0  0  0  0  0  0  0
    9.4188   -0.0000    0.0000 H   0  0  0  0  0  0  0  0  0  0  0  0
  1 11  1  0  0  0  0
  2 10  2  0  0  0  0
  3  6  1  0  0  0  0
  3  8  1  0  0  0  0
  3 10  1  0  0  0  0
  4  6  2  0  0  0  0
  4  7  1  0  0  0  0
  5 10  1  0  0  0  0
  5 12  1  0  0  0  0
  5 19  1  0  0  0  0
  6 11  1  0  0  0  0
  7  8  2  0  0  0  0
  7  9  1  0  0  0  0
  8 18  1  0  0  0  0
  9 13  2  0  0  0  0
  9 14  1  0  0  0  0
 11 12  2  0  0  0  0
 12 20  1  0  0  0  0
 13 15  1  0  0  0  0
 13 21  1  0  0  0  0
 14 16  2  0  0  0  0
 14 22  1  0  0  0  0
 15 17  2  0  0  0  0
 15 23  1  0  0  0  0
 16 17  1  0  0  0  0
 16 24  1  0  0  0  0
 17 25  1  0  0  0  0
M  END
> <PUBCHEM_COMPOUND_CID>
135741883

> <PUBCHEM_COMPOUND_CANONICALIZED>
1

> <PUBCHEM_CACTVS_COMPLEXITY>
352

> <PUBCHEM_CACTVS_HBOND_ACCEPTOR>
2

> <PUBCHEM_CACTVS_HBOND_DONOR>
1

> <PUBCHEM_CACTVS_ROTATABLE_BOND>
1

> <PUBCHEM_CACTVS_SUBSKEYS>
AAADccBzIAAAAgAAAAAAAAAAAAAAAWAAAAAwQAAAAAAAAEABwAAAHgAwAAAADAjDHwQ9kJfMEACoAzZndACCgC0xEqAJ2KA4dJiIaKLAmRGUIAhohwLIyCcQgIAOAAAAAAAAAAAAAAAAAAAAAAAAAAAAAA==

> <PUBCHEM_IUPAC_OPENEYE_NAME>
8-iodo-2-phenyl-6H-imidazo[1,2-c]pyrimidin-5-one

> <PUBCHEM_IUPAC_CAS_NAME>
8-iodo-2-phenyl-6H-imidazo[1,2-c]pyrimidin-5-one

> <PUBCHEM_IUPAC_NAME_MARKUP>
8-iodo-2-phenyl-6<I>H</I>-imidazo[1,2-c]pyrimidin-5-one

> <PUBCHEM_IUPAC_NAME>
8-iodo-2-phenyl-6H-imidazo[1,2-c]pyrimidin-5-one

> <PUBCHEM_IUPAC_SYSTEMATIC_NAME>
8-iodanyl-2-phenyl-6H-imidazo[1,2-c]pyrimidin-5-one

> <PUBCHEM_IUPAC_TRADITIONAL_NAME>
8-iodo-2-phenyl-6H-imidazo[1,2-c]pyrimidin-5-one

> <PUBCHEM_IUPAC_INCHI>
InChI=1S/C12H8IN3O/c13-9-6-14-12(17)16-7-10(15-11(9)16)8-4-2-1-3-5-8/h1-7H,(H,14,17)

> <PUBCHEM_IUPAC_INCHIKEY>
HXILKBXYIZKOHV-UHFFFAOYSA-N

> <PUBCHEM_XLOGP3_AA>
1.8

> <PUBCHEM_EXACT_MASS>
336.97121

> <PUBCHEM_MOLECULAR_FORMULA>
C12H8IN3O

> <PUBCHEM_MOLECULAR_WEIGHT>
337.12

> <PUBCHEM_SMILES>
C1=CC=C(C=C1)C2=CN3C(=N2)C(=CNC3=O)I

> <PUBCHEM_OPENEYE_CAN_SMILES>
C1=CC=C(C=C1)C2=CN3C(=N2)C(=CNC3=O)I

> <PUBCHEM_OPENEYE_ISO_SMILES>
C1=CC=C(C=C1)C2=CN3C(=N2)C(=CNC3=O)I

> <PUBCHEM_CACTVS_TPSA>
46.9

> <PUBCHEM_MONOISOTOPIC_WEIGHT>
336.97121

> <PUBCHEM_TOTAL_CHARGE>
0

> <PUBCHEM_HEAVY_ATOM_COUNT>
17

> <PUBCHEM_ATOM_DEF_STEREO_COUNT>
0

> <PUBCHEM_ATOM_UDEF_STEREO_COUNT>
0

> <PUBCHEM_BOND_DEF_STEREO_COUNT>
0

> <PUBCHEM_BOND_UDEF_STEREO_COUNT>
0

> <PUBCHEM_ISOTOPIC_ATOM_COUNT>
0

> <PUBCHEM_COMPONENT_COUNT>
1

> <PUBCHEM_CACTVS_TAUTO_COUNT>
-1

> <PUBCHEM_COORDINATE_TYPE>
1
5
255

> <PUBCHEM_BONDANNOTATIONS>
11  12  8
13  15  8
14  16  8
15  17  8
16  17  8
3  10  8
3  6  8
3  8  8
4  6  8
4  7  8
5  10  8
5  12  8
6  11  8
7  8  8
9  13  8
9  14  8

$$$$
