46905123
  -OEChem-03192523242D

112121  0     1  0  0  0  0  0999 V2000
   14.4918   -4.3715    0.0000 O   0  0  0  0  0  0  0  0  0  0  0  0
   11.4330   -1.5410    0.0000 O   0  0  0  0  0  0  0  0  0  0  0  0
   10.9473   -1.4384    0.0000 O   0  0  0  0  0  0  0  0  0  0  0  0
   12.4394   -4.3490    0.0000 O   0  0  0  0  0  0  0  0  0  0  0  0
   13.9575    0.1980    0.0000 O   0  0  0  0  0  0  0  0  0  0  0  0
   12.1591    1.2805    0.0000 O   0  0  0  0  0  0  0  0  0  0  0  0
   12.6126   -6.0820    0.0000 O   0  0  0  0  0  0  0  0  0  0  0  0
   13.5462   -5.7236    0.0000 O   0  0  0  0  0  0  0  0  0  0  0  0
   13.6130   -1.5153    0.0000 O   0  0  0  0  0  0  0  0  0  0  0  0
    8.5542    0.3145    0.0000 O   0  0  0  0  0  0  0  0  0  0  0  0
   11.0343   -5.6449    0.0000 O   0  0  0  0  0  0  0  0  0  0  0  0
   10.5025   -3.0401    0.0000 O   0  0  0  0  0  0  0  0  0  0  0  0
   16.6237   -4.1272    0.0000 O   0  0  0  0  0  0  0  0  0  0  0  0
   15.5966   -0.8145    0.0000 O   0  0  0  0  0  0  0  0  0  0  0  0
   17.4405   -2.1623    0.0000 O   0  0  0  0  0  0  0  0  0  0  0  0
   12.7663    2.7464    0.0000 O   0  0  0  0  0  0  0  0  0  0  0  0
   15.2226   -1.8211    0.0000 O   0  0  0  0  0  0  0  0  0  0  0  0
    7.2954    1.2805    0.0000 O   0  0  0  0  0  0  0  0  0  0  0  0
    9.0310    4.6263    0.0000 O   0  0  0  0  0  0  0  0  0  0  0  0
    9.5903    4.7761    0.0000 O   0  0  0  0  0  0  0  0  0  0  0  0
   12.3890    5.3912    0.0000 O   0  0  0  0  0  0  0  0  0  0  0  0
   10.4105    5.9213    0.0000 O   0  0  0  0  0  0  0  0  0  0  0  0
    6.2998    3.7596    0.0000 O   0  0  0  0  0  0  0  0  0  0  0  0
    7.7482    5.2079    0.0000 O   0  0  0  0  0  0  0  0  0  0  0  0
   17.6835    0.3177    0.0000 O   0  0  0  0  0  0  0  0  0  0  0  0
   14.8723    2.3419    0.0000 O   0  0  0  0  0  0  0  0  0  0  0  0
   16.8623    2.1413    0.0000 O   0  0  0  0  0  0  0  0  0  0  0  0
    5.7896    1.8257    0.0000 O   0  0  0  0  0  0  0  0  0  0  0  0
    3.8598    1.3006    0.0000 O   0  0  0  0  0  0  0  0  0  0  0  0
    2.4401    2.7094    0.0000 O   0  0  0  0  0  0  0  0  0  0  0  0
    4.1703    5.8727    0.0000 O   0  0  0  0  0  0  0  0  0  0  0  0
    5.8450    5.4309    0.0000 O   0  0  0  0  0  0  0  0  0  0  0  0
   13.2349   -3.1841    0.0000 C   0  0  3  0  0  0  0  0  0  0  0  0
   13.4327   -4.2336    0.0000 C   0  0  3  0  0  0  0  0  0  0  0  0
   14.1787   -2.6710    0.0000 C   0  0  0  0  0  0  0  0  0  0  0  0
   12.7691   -5.0943    0.0000 C   0  0  0  0  0  0  0  0  0  0  0  0
   11.1932   -0.3926    0.0000 C   0  0  1  0  0  0  0  0  0  0  0  0
   11.9003    0.3145    0.0000 C   0  0  1  0  0  0  0  0  0  0  0  0
   12.1637   -3.1015    0.0000 C   0  0  0  0  0  0  0  0  0  0  0  0
   12.9461    0.5604    0.0000 C   0  0  2  0  0  0  0  0  0  0  0  0
   10.2272   -0.6514    0.0000 C   0  0  1  0  0  0  0  0  0  0  0  0
   14.9519   -3.4078    0.0000 C   0  0  0  0  0  0  0  0  0  0  0  0
   12.8015   -0.9310    0.0000 C   0  0  1  0  0  0  0  0  0  0  0  0
   14.6918   -1.7271    0.0000 C   0  0  0  0  0  0  0  0  0  0  0  0
   11.7000   -4.8987    0.0000 C   0  0  0  0  0  0  0  0  0  0  0  0
   11.3841   -3.8588    0.0000 C   0  0  0  0  0  0  0  0  0  0  0  0
   11.3097   -2.4498    0.0000 C   0  0  0  0  0  0  0  0  0  0  0  0
    9.2613   -0.3926    0.0000 C   0  0  0  0  0  0  0  0  0  0  0  0
   16.0351   -3.3188    0.0000 C   0  0  0  0  0  0  0  0  0  0  0  0
   14.6092   -0.6560    0.0000 C   0  0  0  0  0  0  0  0  0  0  0  0
   15.7513   -1.4846    0.0000 C   0  0  0  0  0  0  0  0  0  0  0  0
   16.4523   -2.3152    0.0000 C   0  0  0  0  0  0  0  0  0  0  0  0
   11.9003    2.2464    0.0000 C   0  0  0  0  0  0  0  0  0  0  0  0
   14.5249   -1.1047    0.0000 C   0  0  0  0  0  0  0  0  0  0  0  0
   11.1932    2.9535    0.0000 C   0  0  0  0  0  0  0  0  0  0  0  0
    8.2954    1.2805    0.0000 C   0  0  0  0  0  0  0  0  0  0  0  0
   10.2272    3.2123    0.0000 C   0  0  0  0  0  0  0  0  0  0  0  0
    8.5542    2.2464    0.0000 C   0  0  0  0  0  0  0  0  0  0  0  0
    9.2613    2.9535    0.0000 C   0  0  0  0  0  0  0  0  0  0  0  0
   15.1092   -0.2932    0.0000 C   0  0  0  0  0  0  0  0  0  0  0  0
   11.9410    3.6786    0.0000 C   0  0  0  0  0  0  0  0  0  0  0  0
    9.9422    4.2142    0.0000 C   0  0  0  0  0  0  0  0  0  0  0  0
    7.5440    2.5004    0.0000 C   0  0  0  0  0  0  0  0  0  0  0  0
    9.0073    3.9637    0.0000 C   0  0  0  0  0  0  0  0  0  0  0  0
   11.6792    4.6868    0.0000 C   0  0  0  0  0  0  0  0  0  0  0  0
   10.6730    4.9564    0.0000 C   0  0  0  0  0  0  0  0  0  0  0  0
   14.6986    0.6186    0.0000 C   0  0  0  0  0  0  0  0  0  0  0  0
   16.1042   -0.3935    0.0000 C   0  0  0  0  0  0  0  0  0  0  0  0
    7.2667    3.5045    0.0000 C   0  0  0  0  0  0  0  0  0  0  0  0
    8.0032    4.2410    0.0000 C   0  0  0  0  0  0  0  0  0  0  0  0
   16.6885    0.4180    0.0000 C   0  0  0  0  0  0  0  0  0  0  0  0
   15.2829    1.4301    0.0000 C   0  0  0  0  0  0  0  0  0  0  0  0
   16.2779    1.3298    0.0000 C   0  0  0  0  0  0  0  0  0  0  0  0
    5.3349    3.4970    0.0000 C   0  0  0  0  0  0  0  0  0  0  0  0
    4.6250    4.2015    0.0000 C   0  0  0  0  0  0  0  0  0  0  0  0
    5.0798    2.5300    0.0000 C   0  0  0  0  0  0  0  0  0  0  0  0
    3.6601    3.9389    0.0000 C   0  0  0  0  0  0  0  0  0  0  0  0
    4.1149    2.2675    0.0000 C   0  0  0  0  0  0  0  0  0  0  0  0
    3.4050    2.9719    0.0000 C   0  0  0  0  0  0  0  0  0  0  0  0
    4.8801    5.1683    0.0000 C   0  0  0  0  0  0  0  0  0  0  0  0
   13.1053   -2.5778    0.0000 H   0  0  0  0  0  0  0  0  0  0  0  0
   10.5921   -0.9936    0.0000 H   0  0  0  0  0  0  0  0  0  0  0  0
   12.5013    0.9156    0.0000 H   0  0  0  0  0  0  0  0  0  0  0  0
   13.5055    1.2004    0.0000 H   0  0  0  0  0  0  0  0  0  0  0  0
    9.8585   -1.4172    0.0000 H   0  0  0  0  0  0  0  0  0  0  0  0
   13.4184   -0.9932    0.0000 H   0  0  0  0  0  0  0  0  0  0  0  0
   10.7837   -3.7039    0.0000 H   0  0  0  0  0  0  0  0  0  0  0  0
    8.6994   -0.6546    0.0000 H   0  0  0  0  0  0  0  0  0  0  0  0
    9.5713    0.1444    0.0000 H   0  0  0  0  0  0  0  0  0  0  0  0
   12.0695   -3.8514    0.0000 H   0  0  0  0  0  0  0  0  0  0  0  0
   15.9477   -0.8965    0.0000 H   0  0  0  0  0  0  0  0  0  0  0  0
   13.0944   -6.4722    0.0000 H   0  0  0  0  0  0  0  0  0  0  0  0
   14.1250   -5.5015    0.0000 H   0  0  0  0  0  0  0  0  0  0  0  0
   17.2403   -4.0617    0.0000 H   0  0  0  0  0  0  0  0  0  0  0  0
   17.6647   -1.5843    0.0000 H   0  0  0  0  0  0  0  0  0  0  0  0
   12.5380    3.5112    0.0000 H   0  0  0  0  0  0  0  0  0  0  0  0
    7.1107    2.0570    0.0000 H   0  0  0  0  0  0  0  0  0  0  0  0
   14.0817    0.6808    0.0000 H   0  0  0  0  0  0  0  0  0  0  0  0
   16.3587   -0.9589    0.0000 H   0  0  0  0  0  0  0  0  0  0  0  0
    8.7625    5.1851    0.0000 H   0  0  0  0  0  0  0  0  0  0  0  0
    9.5434    5.3944    0.0000 H   0  0  0  0  0  0  0  0  0  0  0  0
   12.9872    5.2284    0.0000 H   0  0  0  0  0  0  0  0  0  0  0  0
   10.8472    6.3614    0.0000 H   0  0  0  0  0  0  0  0  0  0  0  0
    7.1499    5.3707    0.0000 H   0  0  0  0  0  0  0  0  0  0  0  0
   18.0458    0.8208    0.0000 H   0  0  0  0  0  0  0  0  0  0  0  0
   15.2346    2.8450    0.0000 H   0  0  0  0  0  0  0  0  0  0  0  0
   17.4791    2.0791    0.0000 H   0  0  0  0  0  0  0  0  0  0  0  0
    3.2200    4.3756    0.0000 H   0  0  0  0  0  0  0  0  0  0  0  0
    6.3878    1.9885    0.0000 H   0  0  0  0  0  0  0  0  0  0  0  0
    3.2615    1.1378    0.0000 H   0  0  0  0  0  0  0  0  0  0  0  0
    2.0000    3.1461    0.0000 H   0  0  0  0  0  0  0  0  0  0  0  0
    4.3285    6.4722    0.0000 H   0  0  0  0  0  0  0  0  0  0  0  0
  1 34  1  0  0  0  0
  1 42  1  0  0  0  0
  2 41  1  0  0  0  0
  2 43  1  0  0  0  0
  3 37  1  0  0  0  0
  3 47  1  0  0  0  0
  4 34  1  0  0  0  0
  4 90  1  0  0  0  0
  5 40  1  0  0  0  0
  5 50  1  0  0  0  0
  6 38  1  0  0  0  0
  6 53  1  0  0  0  0
  7 36  1  0  0  0  0
  7 92  1  0  0  0  0
  8 36  1  0  0  0  0
  8 93  1  0  0  0  0
 43  9  1  6  0  0  0
  9 54  1  0  0  0  0
 10 48  1  0  0  0  0
 10 56  1  0  0  0  0
 11 45  2  0  0  0  0
 12 47  2  0  0  0  0
 13 49  1  0  0  0  0
 13 94  1  0  0  0  0
 14 50  2  0  0  0  0
 15 52  1  0  0  0  0
 15 95  1  0  0  0  0
 16 53  2  0  0  0  0
 17 54  2  0  0  0  0
 18 56  2  0  0  0  0
 19 62  1  0  0  0  0
 19100  1  0  0  0  0
 20 64  1  0  0  0  0
 20101  1  0  0  0  0
 21 65  1  0  0  0  0
 21102  1  0  0  0  0
 22 66  1  0  0  0  0
 22103  1  0  0  0  0
 23 69  1  0  0  0  0
 23 74  1  0  0  0  0
 24 70  1  0  0  0  0
 24104  1  0  0  0  0
 25 71  1  0  0  0  0
 25105  1  0  0  0  0
 26 72  1  0  0  0  0
 26106  1  0  0  0  0
 27 73  1  0  0  0  0
 27107  1  0  0  0  0
 28 76  1  0  0  0  0
 28109  1  0  0  0  0
 29 78  1  0  0  0  0
 29110  1  0  0  0  0
 30 79  1  0  0  0  0
 30111  1  0  0  0  0
 31 80  1  0  0  0  0
 31112  1  0  0  0  0
 32 80  2  0  0  0  0
 33 34  1  0  0  0  0
 33 35  1  0  0  0  0
 33 39  1  0  0  0  0
 33 81  1  0  0  0  0
 34 36  1  0  0  0  0
 35 42  2  0  0  0  0
 35 44  1  0  0  0  0
 36 45  1  0  0  0  0
 37 38  1  0  0  0  0
 37 41  1  0  0  0  0
 37 82  1  1  0  0  0
 38 40  1  0  0  0  0
 38 83  1  1  0  0  0
 39 46  2  0  0  0  0
 39 47  1  0  0  0  0
 40 43  1  0  0  0  0
 40 84  1  6  0  0  0
 41 48  1  0  0  0  0
 41 85  1  1  0  0  0
 42 49  1  0  0  0  0
 43 86  1  0  0  0  0
 44 50  1  0  0  0  0
 44 51  2  0  0  0  0
 45 46  1  0  0  0  0
 46 87  1  0  0  0  0
 48 88  1  0  0  0  0
 48 89  1  0  0  0  0
 49 52  2  0  0  0  0
 51 52  1  0  0  0  0
 51 91  1  0  0  0  0
 53 55  1  0  0  0  0
 54 60  1  0  0  0  0
 55 57  1  0  0  0  0
 55 61  2  0  0  0  0
 56 58  1  0  0  0  0
 57 59  1  0  0  0  0
 57 62  2  0  0  0  0
 58 59  1  0  0  0  0
 58 63  2  0  0  0  0
 59 64  2  0  0  0  0
 60 67  2  0  0  0  0
 60 68  1  0  0  0  0
 61 65  1  0  0  0  0
 61 96  1  0  0  0  0
 62 66  1  0  0  0  0
 63 69  1  0  0  0  0
 63 97  1  0  0  0  0
 64 70  1  0  0  0  0
 65 66  2  0  0  0  0
 67 72  1  0  0  0  0
 67 98  1  0  0  0  0
 68 71  2  0  0  0  0
 68 99  1  0  0  0  0
 69 70  2  0  0  0  0
 71 73  1  0  0  0  0
 72 73  2  0  0  0  0
 74 75  1  0  0  0  0
 74 76  2  0  0  0  0
 75 77  2  0  0  0  0
 75 80  1  0  0  0  0
 76 78  1  0  0  0  0
 77 79  1  0  0  0  0
 77108  1  0  0  0  0
 78 79  2  0  0  0  0
M  END
> <PUBCHEM_COMPOUND_CID>
46905123

> <PUBCHEM_COMPOUND_CANONICALIZED>
1

> <PUBCHEM_CACTVS_COMPLEXITY>
2490

> <PUBCHEM_CACTVS_HBOND_ACCEPTOR>
32

> <PUBCHEM_CACTVS_HBOND_DONOR>
17

> <PUBCHEM_CACTVS_ROTATABLE_BOND>
6

> <PUBCHEM_CACTVS_SUBSKEYS>
AAADcfB8PgAAAAAAAAAAAAAAAAAAASAAAAA0YMGDAAAAAEgBVAAAGgAACAAADRSwmAMwDoAABgCIAqDSCAICCAAkIAAAiAFGiMgdJzaGNRqieWOl4BUPuYfK7PzOoQABCAAYQABCAAIQADCAAAAAAAAAAA==

> <PUBCHEM_IUPAC_OPENEYE_NAME>
2-[[(8R,9S,27R,29S,30R)-1,2,2,14,15,16,19,20,35,36-decahydroxy-3,6,11,24,32-pentaoxo-29-(3,4,5-trihydroxybenzoyl)oxy-7,10,25,28,31,40-hexaoxaoctacyclo[35.2.1.05,39.08,27.09,30.012,17.018,23.033,38]tetraconta-4,12,14,16,18,20,22,33,35,37-decaen-21-yl]oxy]-3,4,5-trihydroxy-benzoic acid

> <PUBCHEM_IUPAC_CAS_NAME>
2-[[(8R,9S,27R,29S,30R)-1,2,2,14,15,16,19,20,35,36-decahydroxy-3,6,11,24,32-pentaoxo-29-[oxo-(3,4,5-trihydroxyphenyl)methoxy]-7,10,25,28,31,40-hexaoxaoctacyclo[35.2.1.05,39.08,27.09,30.012,17.018,23.033,38]tetraconta-4,12,14,16,18,20,22,33,35,37-decaen-21-yl]oxy]-3,4,5-trihydroxybenzoic acid

> <PUBCHEM_IUPAC_NAME_MARKUP>
2-[[(8<I>R</I>,9<I>S</I>,27<I>R</I>,29<I>S</I>,30<I>R</I>)-1,2,2,14,15,16,19,20,35,36-decahydroxy-3,6,11,24,32-pentaoxo-29-(3,4,5-trihydroxybenzoyl)oxy-7,10,25,28,31,40-hexaoxaoctacyclo[35.2.1.0<SUP>5,39</SUP>.0<SUP>8,27</SUP>.0<SUP>9,30</SUP>.0<SUP>12,17</SUP>.0<SUP>18,23</SUP>.0<SUP>33,38</SUP>]tetraconta-4,12,14,16,18,20,22,33,35,37-decaen-21-yl]oxy]-3,4,5-trihydroxybenzoic acid

> <PUBCHEM_IUPAC_NAME>
2-[[(8R,9S,27R,29S,30R)-1,2,2,14,15,16,19,20,35,36-decahydroxy-3,6,11,24,32-pentaoxo-29-(3,4,5-trihydroxybenzoyl)oxy-7,10,25,28,31,40-hexaoxaoctacyclo[35.2.1.05,39.08,27.09,30.012,17.018,23.033,38]tetraconta-4,12,14,16,18,20,22,33,35,37-decaen-21-yl]oxy]-3,4,5-trihydroxybenzoic acid

> <PUBCHEM_IUPAC_SYSTEMATIC_NAME>
2-[[(8R,9S,27R,29S,30R)-1,2,2,14,15,16,19,20,35,36-decakis(oxidanyl)-3,6,11,24,32-pentakis(oxidanylidene)-29-[3,4,5-tris(oxidanyl)phenyl]carbonyloxy-7,10,25,28,31,40-hexaoxaoctacyclo[35.2.1.05,39.08,27.09,30.012,17.018,23.033,38]tetraconta-4,12,14,16,18,20,22,33,35,37-decaen-21-yl]oxy]-3,4,5-tris(oxidanyl)benzoic acid

> <PUBCHEM_IUPAC_TRADITIONAL_NAME>
2-[[(8R,9S,27R,29S,30R)-29-galloyloxy-1,2,2,14,15,16,19,20,35,36-decahydroxy-3,6,11,24,32-pentaketo-7,10,25,28,31,40-hexaoxaoctacyclo[35.2.1.05,39.08,27.09,30.012,17.018,23.033,38]tetraconta-4,12,14,16,18,20,22,33,35,37-decaen-21-yl]oxy]-3,4,5-trihydroxy-benzoic acid

> <PUBCHEM_IUPAC_INCHI>
InChI=1S/C48H32O32/c49-15-1-9(2-16(50)27(15)55)41(65)79-46-39-38-36(76-45(69)13-7-22(54)47(70,71)48(72)26(13)25-11(44(68)78-39)4-19(53)30(58)37(25)80-48)21(75-46)8-73-42(66)12-6-20(74-35-14(40(63)64)5-18(52)29(57)34(35)62)31(59)33(61)24(12)23-10(43(67)77-38)3-17(51)28(56)32(23)60/h1-7,21,26,36,38-39,46,49-53,55-62,70-72H,8H2,(H,63,64)/t21-,26?,36-,38+,39-,46+,48?/m1/s1

> <PUBCHEM_IUPAC_INCHIKEY>
AFGJEKPFFJLISF-XXZGJZCYSA-N

> <PUBCHEM_XLOGP3_AA>
-0.2

> <PUBCHEM_EXACT_MASS>
1120.0876688

> <PUBCHEM_MOLECULAR_FORMULA>
C48H32O32

> <PUBCHEM_MOLECULAR_WEIGHT>
1120.7

> <PUBCHEM_SMILES>
C1[C@@H]2[C@@H]3[C@@H]([C@H]([C@@H](O2)OC(=O)C4=CC(=C(C(=C4)O)O)O)OC(=O)C5=CC(=C(C6=C5C7C(=CC(=O)C(C7(O6)O)(O)O)C(=O)O3)O)O)OC(=O)C8=CC(=C(C(=C8C9=C(C(=C(C=C9C(=O)O1)OC1=C(C(=C(C=C1C(=O)O)O)O)O)O)O)O)O)O

> <PUBCHEM_OPENEYE_CAN_SMILES>
C1C2C3C(C(C(O2)OC(=O)C4=CC(=C(C(=C4)O)O)O)OC(=O)C5=CC(=C(C6=C5C7C(=CC(=O)C(C7(O6)O)(O)O)C(=O)O3)O)O)OC(=O)C8=CC(=C(C(=C8C9=C(C(=C(C=C9C(=O)O1)OC1=C(C(=C(C=C1C(=O)O)O)O)O)O)O)O)O)O

> <PUBCHEM_OPENEYE_ISO_SMILES>
C1[C@@H]2[C@@H]3[C@@H]([C@H]([C@@H](O2)OC(=O)C4=CC(=C(C(=C4)O)O)O)OC(=O)C5=CC(=C(C6=C5C7C(=CC(=O)C(C7(O6)O)(O)O)C(=O)O3)O)O)OC(=O)C8=CC(=C(C(=C8C9=C(C(=C(C=C9C(=O)O1)OC1=C(C(=C(C=C1C(=O)O)O)O)O)O)O)O)O)O

> <PUBCHEM_CACTVS_TPSA>
537

> <PUBCHEM_MONOISOTOPIC_WEIGHT>
1120.0876688

> <PUBCHEM_TOTAL_CHARGE>
0

> <PUBCHEM_HEAVY_ATOM_COUNT>
80

> <PUBCHEM_ATOM_DEF_STEREO_COUNT>
5

> <PUBCHEM_ATOM_UDEF_STEREO_COUNT>
2

> <PUBCHEM_BOND_DEF_STEREO_COUNT>
0

> <PUBCHEM_BOND_UDEF_STEREO_COUNT>
0

> <PUBCHEM_ISOTOPIC_ATOM_COUNT>
0

> <PUBCHEM_COMPONENT_COUNT>
1

> <PUBCHEM_CACTVS_TAUTO_COUNT>
-1

> <PUBCHEM_COORDINATE_TYPE>
1
5
255

> <PUBCHEM_BONDANNOTATIONS>
33  35  3
35  42  8
35  44  8
37  82  5
38  83  5
34  4  3
40  84  6
41  85  5
42  49  8
44  51  8
49  52  8
51  52  8
55  57  8
55  61  8
57  62  8
58  59  8
58  63  8
59  64  8
60  67  8
60  68  8
61  65  8
62  66  8
63  69  8
64  70  8
65  66  8
67  72  8
68  71  8
69  70  8
71  73  8
72  73  8
74  75  8
74  76  8
75  77  8
76  78  8
77  79  8
78  79  8
43  9  6

$$$$
