49830660
  -OEChem-03202503432D

 68 71  0     0  0  0  0  0  0999 V2000
    8.8556   -2.5569    0.0000 O   0  0  0  0  0  0  0  0  0  0  0  0
    5.5717    1.1579    0.0000 O   0  0  0  0  0  0  0  0  0  0  0  0
    8.1698    0.6579    0.0000 O   0  0  0  0  0  0  0  0  0  0  0  0
   10.7577   -1.9388    0.0000 O   0  0  0  0  0  0  0  0  0  0  0  0
   13.9382   -3.6372    0.0000 O   0  0  0  0  0  0  0  0  0  0  0  0
    5.4672   -1.8366    0.0000 N   0  0  0  0  0  0  0  0  0  0  0  0
    4.4890   -2.0445    0.0000 N   0  0  0  0  0  0  0  0  0  0  0  0
    6.4378   -0.3421    0.0000 N   0  0  0  0  0  0  0  0  0  0  0  0
   11.2929   -3.5861    0.0000 N   0  0  0  0  0  0  0  0  0  0  0  0
    2.9945   -1.0740    0.0000 C   0  0  0  0  0  0  0  0  0  0  0  0
    3.9890   -1.1785    0.0000 C   0  0  0  0  0  0  0  0  0  0  0  0
    2.0000   -0.9695    0.0000 C   0  0  0  0  0  0  0  0  0  0  0  0
    2.8900   -2.0685    0.0000 C   0  0  0  0  0  0  0  0  0  0  0  0
    3.0990   -0.0795    0.0000 C   0  0  0  0  0  0  0  0  0  0  0  0
    4.6582   -0.4354    0.0000 C   0  0  0  0  0  0  0  0  0  0  0  0
    5.5717   -0.8421    0.0000 C   0  0  0  0  0  0  0  0  0  0  0  0
    6.2103   -2.5058    0.0000 C   0  0  0  0  0  0  0  0  0  0  0  0
    7.1614   -2.1967    0.0000 C   0  0  0  0  0  0  0  0  0  0  0  0
    6.0024   -3.4839    0.0000 C   0  0  0  0  0  0  0  0  0  0  0  0
    6.4378    0.6579    0.0000 C   0  0  0  0  0  0  0  0  0  0  0  0
    7.9045   -2.8659    0.0000 C   0  0  0  0  0  0  0  0  0  0  0  0
    6.7456   -4.1530    0.0000 C   0  0  0  0  0  0  0  0  0  0  0  0
    7.3038    2.1579    0.0000 C   0  0  0  0  0  0  0  0  0  0  0  0
    7.3038    1.1579    0.0000 C   0  0  0  0  0  0  0  0  0  0  0  0
    7.6966   -3.8440    0.0000 C   0  0  0  0  0  0  0  0  0  0  0  0
    8.1698    2.6579    0.0000 C   0  0  0  0  0  0  0  0  0  0  0  0
    8.1698    3.6579    0.0000 C   0  0  0  0  0  0  0  0  0  0  0  0
    6.4378    2.6579    0.0000 C   0  0  0  0  0  0  0  0  0  0  0  0
    9.0637    2.1232    0.0000 C   0  0  0  0  0  0  0  0  0  0  0  0
    7.3038    4.1579    0.0000 C   0  0  0  0  0  0  0  0  0  0  0  0
    6.4378    3.6579    0.0000 C   0  0  0  0  0  0  0  0  0  0  0  0
    9.0637    4.1926    0.0000 C   0  0  0  0  0  0  0  0  0  0  0  0
    9.5987   -3.2260    0.0000 C   0  0  0  0  0  0  0  0  0  0  0  0
    9.9698    2.6371    0.0000 C   0  0  0  0  0  0  0  0  0  0  0  0
    9.9698    3.6787    0.0000 C   0  0  0  0  0  0  0  0  0  0  0  0
   10.5498   -2.9170    0.0000 C   0  0  0  0  0  0  0  0  0  0  0  0
   12.2440   -3.2771    0.0000 C   0  0  0  0  0  0  0  0  0  0  0  0
   12.9871   -3.9462    0.0000 C   0  0  0  0  0  0  0  0  0  0  0  0
    2.0648   -0.3529    0.0000 H   0  0  0  0  0  0  0  0  0  0  0  0
    1.3834   -0.9047    0.0000 H   0  0  0  0  0  0  0  0  0  0  0  0
    1.9352   -1.5861    0.0000 H   0  0  0  0  0  0  0  0  0  0  0  0
    2.2734   -2.0037    0.0000 H   0  0  0  0  0  0  0  0  0  0  0  0
    2.8252   -2.6851    0.0000 H   0  0  0  0  0  0  0  0  0  0  0  0
    3.5066   -2.1333    0.0000 H   0  0  0  0  0  0  0  0  0  0  0  0
    3.7156   -0.1443    0.0000 H   0  0  0  0  0  0  0  0  0  0  0  0
    3.1639    0.5371    0.0000 H   0  0  0  0  0  0  0  0  0  0  0  0
    2.4824   -0.0147    0.0000 H   0  0  0  0  0  0  0  0  0  0  0  0
    4.5293    0.1711    0.0000 H   0  0  0  0  0  0  0  0  0  0  0  0
    6.9747   -0.6521    0.0000 H   0  0  0  0  0  0  0  0  0  0  0  0
    7.2903   -1.5903    0.0000 H   0  0  0  0  0  0  0  0  0  0  0  0
    5.4128   -3.6755    0.0000 H   0  0  0  0  0  0  0  0  0  0  0  0
    6.6167   -4.7595    0.0000 H   0  0  0  0  0  0  0  0  0  0  0  0
    8.1574   -4.2589    0.0000 H   0  0  0  0  0  0  0  0  0  0  0  0
    5.9008    2.3479    0.0000 H   0  0  0  0  0  0  0  0  0  0  0  0
    9.0566    1.5033    0.0000 H   0  0  0  0  0  0  0  0  0  0  0  0
    7.3038    4.7779    0.0000 H   0  0  0  0  0  0  0  0  0  0  0  0
    5.9008    3.9679    0.0000 H   0  0  0  0  0  0  0  0  0  0  0  0
    9.0566    4.8125    0.0000 H   0  0  0  0  0  0  0  0  0  0  0  0
    9.1102   -3.6077    0.0000 H   0  0  0  0  0  0  0  0  0  0  0  0
    9.8898   -3.7734    0.0000 H   0  0  0  0  0  0  0  0  0  0  0  0
   10.5055    2.3250    0.0000 H   0  0  0  0  0  0  0  0  0  0  0  0
   10.5055    3.9908    0.0000 H   0  0  0  0  0  0  0  0  0  0  0  0
   11.1640   -4.1926    0.0000 H   0  0  0  0  0  0  0  0  0  0  0  0
   12.7326   -2.8954    0.0000 H   0  0  0  0  0  0  0  0  0  0  0  0
   11.9529   -2.7297    0.0000 H   0  0  0  0  0  0  0  0  0  0  0  0
   12.4986   -4.3279    0.0000 H   0  0  0  0  0  0  0  0  0  0  0  0
   13.2782   -4.4936    0.0000 H   0  0  0  0  0  0  0  0  0  0  0  0
   14.3989   -4.0521    0.0000 H   0  0  0  0  0  0  0  0  0  0  0  0
  1 21  1  0  0  0  0
  1 33  1  0  0  0  0
  2 20  2  0  0  0  0
  3 24  2  0  0  0  0
  4 36  2  0  0  0  0
  5 38  1  0  0  0  0
  5 68  1  0  0  0  0
  6  7  1  0  0  0  0
  6 16  1  0  0  0  0
  6 17  1  0  0  0  0
  7 11  2  0  0  0  0
  8 16  1  0  0  0  0
  8 20  1  0  0  0  0
  8 49  1  0  0  0  0
  9 36  1  0  0  0  0
  9 37  1  0  0  0  0
  9 63  1  0  0  0  0
 10 11  1  0  0  0  0
 10 12  1  0  0  0  0
 10 13  1  0  0  0  0
 10 14  1  0  0  0  0
 11 15  1  0  0  0  0
 12 39  1  0  0  0  0
 12 40  1  0  0  0  0
 12 41  1  0  0  0  0
 13 42  1  0  0  0  0
 13 43  1  0  0  0  0
 13 44  1  0  0  0  0
 14 45  1  0  0  0  0
 14 46  1  0  0  0  0
 14 47  1  0  0  0  0
 15 16  2  0  0  0  0
 15 48  1  0  0  0  0
 17 18  2  0  0  0  0
 17 19  1  0  0  0  0
 18 21  1  0  0  0  0
 18 50  1  0  0  0  0
 19 22  2  0  0  0  0
 19 51  1  0  0  0  0
 20 24  1  0  0  0  0
 21 25  2  0  0  0  0
 22 25  1  0  0  0  0
 22 52  1  0  0  0  0
 23 24  1  0  0  0  0
 23 26  1  0  0  0  0
 23 28  2  0  0  0  0
 25 53  1  0  0  0  0
 26 27  1  0  0  0  0
 26 29  2  0  0  0  0
 27 30  1  0  0  0  0
 27 32  2  0  0  0  0
 28 31  1  0  0  0  0
 28 54  1  0  0  0  0
 29 34  1  0  0  0  0
 29 55  1  0  0  0  0
 30 31  2  0  0  0  0
 30 56  1  0  0  0  0
 31 57  1  0  0  0  0
 32 35  1  0  0  0  0
 32 58  1  0  0  0  0
 33 36  1  0  0  0  0
 33 59  1  0  0  0  0
 33 60  1  0  0  0  0
 34 35  2  0  0  0  0
 34 61  1  0  0  0  0
 35 62  1  0  0  0  0
 37 38  1  0  0  0  0
 37 64  1  0  0  0  0
 37 65  1  0  0  0  0
 38 66  1  0  0  0  0
 38 67  1  0  0  0  0
M  END
> <PUBCHEM_COMPOUND_CID>
49830660

> <PUBCHEM_COMPOUND_CANONICALIZED>
1

> <PUBCHEM_CACTVS_COMPLEXITY>
830

> <PUBCHEM_CACTVS_HBOND_ACCEPTOR>
6

> <PUBCHEM_CACTVS_HBOND_DONOR>
3

> <PUBCHEM_CACTVS_ROTATABLE_BOND>
10

> <PUBCHEM_CACTVS_SUBSKEYS>
AAADceB7uAAAAAAAAAAAAAAAAAAAAWAAAAAwYMAAAAAAAADB1AAAHgAYCAAADgzhngYz9tLIBgCqA6dydAKSDCMlIgAdmKH+bNiONnLE/f+HvSj+3xvY6aeY2MOPgAACAgAQAAAAAAQEACAAAAAAAAAAAA==

> <PUBCHEM_IUPAC_OPENEYE_NAME>
N-[5-tert-butyl-2-[3-[2-(2-hydroxyethylamino)-2-oxo-ethoxy]phenyl]pyrazol-3-yl]-2-(1-naphthyl)-2-oxo-acetamide

> <PUBCHEM_IUPAC_CAS_NAME>
N-[5-tert-butyl-2-[3-[2-(2-hydroxyethylamino)-2-oxoethoxy]phenyl]-3-pyrazolyl]-2-(1-naphthalenyl)-2-oxoacetamide

> <PUBCHEM_IUPAC_NAME_MARKUP>
<I>N</I>-[5-<I>tert</I>-butyl-2-[3-[2-(2-hydroxyethylamino)-2-oxoethoxy]phenyl]pyrazol-3-yl]-2-naphthalen-1-yl-2-oxoacetamide

> <PUBCHEM_IUPAC_NAME>
N-[5-tert-butyl-2-[3-[2-(2-hydroxyethylamino)-2-oxoethoxy]phenyl]pyrazol-3-yl]-2-naphthalen-1-yl-2-oxoacetamide

> <PUBCHEM_IUPAC_SYSTEMATIC_NAME>
N-[5-tert-butyl-2-[3-[2-(2-hydroxyethylamino)-2-oxidanylidene-ethoxy]phenyl]pyrazol-3-yl]-2-naphthalen-1-yl-2-oxidanylidene-ethanamide

> <PUBCHEM_IUPAC_TRADITIONAL_NAME>
N-[5-tert-butyl-2-[3-[2-(2-hydroxyethylamino)-2-keto-ethoxy]phenyl]pyrazol-3-yl]-2-keto-2-(1-naphthyl)acetamide

> <PUBCHEM_IUPAC_INCHI>
InChI=1S/C29H30N4O5/c1-29(2,3)24-17-25(31-28(37)27(36)23-13-6-9-19-8-4-5-12-22(19)23)33(32-24)20-10-7-11-21(16-20)38-18-26(35)30-14-15-34/h4-13,16-17,34H,14-15,18H2,1-3H3,(H,30,35)(H,31,37)

> <PUBCHEM_IUPAC_INCHIKEY>
LAFJLZWDOZQPGO-UHFFFAOYSA-N

> <PUBCHEM_XLOGP3_AA>
4.5

> <PUBCHEM_EXACT_MASS>
514.22162007

> <PUBCHEM_MOLECULAR_FORMULA>
C29H30N4O5

> <PUBCHEM_MOLECULAR_WEIGHT>
514.6

> <PUBCHEM_SMILES>
CC(C)(C)C1=NN(C(=C1)NC(=O)C(=O)C2=CC=CC3=CC=CC=C32)C4=CC(=CC=C4)OCC(=O)NCCO

> <PUBCHEM_OPENEYE_CAN_SMILES>
CC(C)(C)C1=NN(C(=C1)NC(=O)C(=O)C2=CC=CC3=CC=CC=C32)C4=CC(=CC=C4)OCC(=O)NCCO

> <PUBCHEM_OPENEYE_ISO_SMILES>
CC(C)(C)C1=NN(C(=C1)NC(=O)C(=O)C2=CC=CC3=CC=CC=C32)C4=CC(=CC=C4)OCC(=O)NCCO

> <PUBCHEM_CACTVS_TPSA>
123

> <PUBCHEM_MONOISOTOPIC_WEIGHT>
514.22162007

> <PUBCHEM_TOTAL_CHARGE>
0

> <PUBCHEM_HEAVY_ATOM_COUNT>
38

> <PUBCHEM_ATOM_DEF_STEREO_COUNT>
0

> <PUBCHEM_ATOM_UDEF_STEREO_COUNT>
0

> <PUBCHEM_BOND_DEF_STEREO_COUNT>
0

> <PUBCHEM_BOND_UDEF_STEREO_COUNT>
0

> <PUBCHEM_ISOTOPIC_ATOM_COUNT>
0

> <PUBCHEM_COMPONENT_COUNT>
1

> <PUBCHEM_CACTVS_TAUTO_COUNT>
-1

> <PUBCHEM_COORDINATE_TYPE>
1
5
255

> <PUBCHEM_BONDANNOTATIONS>
11  15  8
15  16  8
17  18  8
17  19  8
18  21  8
19  22  8
21  25  8
22  25  8
23  26  8
23  28  8
26  27  8
26  29  8
27  30  8
27  32  8
28  31  8
29  34  8
30  31  8
32  35  8
34  35  8
6  16  8
6  7  8
7  11  8

$$$$
