49830637
  -OEChem-03202502362D

 36 39  0     0  0  0  0  0  0999 V2000
    7.4013   -1.4501    0.0000 S   0  0  0  0  0  0  0  0  0  0  0  0
    3.6419    3.2073    0.0000 O   0  0  0  0  0  0  0  0  0  0  0  0
    5.8311   -3.6531    0.0000 N   0  0  0  0  0  0  0  0  0  0  0  0
    4.8370   -3.6540    0.0000 N   0  0  0  0  0  0  0  0  0  0  0  0
    5.3364   -2.1216    0.0000 C   0  0  0  0  0  0  0  0  0  0  0  0
    5.0274   -1.1705    0.0000 C   0  0  0  0  0  0  0  0  0  0  0  0
    4.0274   -1.1705    0.0000 C   0  0  0  0  0  0  0  0  0  0  0  0
    4.5274   -2.7094    0.0000 C   0  0  0  0  0  0  0  0  0  0  0  0
    3.7183   -2.1216    0.0000 C   0  0  0  0  0  0  0  0  0  0  0  0
    6.1391   -2.7080    0.0000 C   0  0  0  0  0  0  0  0  0  0  0  0
    3.3424   -0.3858    0.0000 C   0  0  0  0  0  0  0  0  0  0  0  0
    2.7029   -2.3538    0.0000 C   0  0  0  0  0  0  0  0  0  0  0  0
    7.0907   -2.4006    0.0000 C   0  0  0  0  0  0  0  0  0  0  0  0
    2.3219   -0.5945    0.0000 C   0  0  0  0  0  0  0  0  0  0  0  0
    2.0000   -1.5851    0.0000 C   0  0  0  0  0  0  0  0  0  0  0  0
    7.8987   -2.9898    0.0000 C   0  0  0  0  0  0  0  0  0  0  0  0
    3.6624    0.5616    0.0000 C   0  0  0  0  0  0  0  0  0  0  0  0
    8.7087   -2.4034    0.0000 C   0  0  0  0  0  0  0  0  0  0  0  0
    8.4013   -1.4518    0.0000 C   0  0  0  0  0  0  0  0  0  0  0  0
    3.9824    1.5090    0.0000 C   0  0  0  0  0  0  0  0  0  0  0  0
    4.3024    2.4565    0.0000 C   0  0  0  0  0  0  0  0  0  0  0  0
    3.9619    4.1547    0.0000 C   0  0  0  0  0  0  0  0  0  0  0  0
    5.6338   -1.0416    0.0000 H   0  0  0  0  0  0  0  0  0  0  0  0
    4.9626   -0.5539    0.0000 H   0  0  0  0  0  0  0  0  0  0  0  0
    2.5182   -2.9457    0.0000 H   0  0  0  0  0  0  0  0  0  0  0  0
    6.1955   -4.1547    0.0000 H   0  0  0  0  0  0  0  0  0  0  0  0
    1.9088   -0.1322    0.0000 H   0  0  0  0  0  0  0  0  0  0  0  0
    1.3940   -1.7164    0.0000 H   0  0  0  0  0  0  0  0  0  0  0  0
    7.8976   -3.6098    0.0000 H   0  0  0  0  0  0  0  0  0  0  0  0
    9.2980   -2.5960    0.0000 H   0  0  0  0  0  0  0  0  0  0  0  0
    8.7666   -0.9509    0.0000 H   0  0  0  0  0  0  0  0  0  0  0  0
    4.8464    2.1591    0.0000 H   0  0  0  0  0  0  0  0  0  0  0  0
    4.6897    2.9406    0.0000 H   0  0  0  0  0  0  0  0  0  0  0  0
    4.5493    3.9563    0.0000 H   0  0  0  0  0  0  0  0  0  0  0  0
    4.1603    4.7421    0.0000 H   0  0  0  0  0  0  0  0  0  0  0  0
    3.3745    4.3531    0.0000 H   0  0  0  0  0  0  0  0  0  0  0  0
  1 13  1  0  0  0  0
  1 19  1  0  0  0  0
  2 21  1  0  0  0  0
  2 22  1  0  0  0  0
  3  4  1  0  0  0  0
  3 10  1  0  0  0  0
  3 26  1  0  0  0  0
  4  8  2  0  0  0  0
  5  6  1  0  0  0  0
  5  8  1  0  0  0  0
  5 10  2  0  0  0  0
  6  7  1  0  0  0  0
  6 23  1  0  0  0  0
  6 24  1  0  0  0  0
  7  9  1  0  0  0  0
  7 11  2  0  0  0  0
  8  9  1  0  0  0  0
  9 12  2  0  0  0  0
 10 13  1  0  0  0  0
 11 14  1  0  0  0  0
 11 17  1  0  0  0  0
 12 15  1  0  0  0  0
 12 25  1  0  0  0  0
 13 16  2  0  0  0  0
 14 15  2  0  0  0  0
 14 27  1  0  0  0  0
 15 28  1  0  0  0  0
 16 18  1  0  0  0  0
 16 29  1  0  0  0  0
 17 20  3  0  0  0  0
 18 19  2  0  0  0  0
 18 30  1  0  0  0  0
 19 31  1  0  0  0  0
 20 21  1  0  0  0  0
 21 32  1  0  0  0  0
 21 33  1  0  0  0  0
 22 34  1  0  0  0  0
 22 35  1  0  0  0  0
 22 36  1  0  0  0  0
M  END
> <PUBCHEM_COMPOUND_CID>
49830637

> <PUBCHEM_COMPOUND_CANONICALIZED>
1

> <PUBCHEM_CACTVS_COMPLEXITY>
470

> <PUBCHEM_CACTVS_HBOND_ACCEPTOR>
3

> <PUBCHEM_CACTVS_HBOND_DONOR>
1

> <PUBCHEM_CACTVS_ROTATABLE_BOND>
3

> <PUBCHEM_CACTVS_SUBSKEYS>
AAADccB7IABAAAAAAAAAAAAAAAAAAeJEAAAwAAAAAAAWAGAB8AAAHgQYAAAADAil3gKygZBjBAjmEyRiQAiTBIAgCBBYuTggRJgIIKKg0dGApABgiAAoyAcQgMAOgAACAAAQAAAAAAQAACAAASAACQAAAA==

> <PUBCHEM_IUPAC_OPENEYE_NAME>
5-(3-methoxyprop-1-ynyl)-3-(2-thienyl)-2,4-dihydroindeno[1,2-c]pyrazole

> <PUBCHEM_IUPAC_CAS_NAME>
5-(3-methoxyprop-1-ynyl)-3-thiophen-2-yl-2,4-dihydroindeno[1,2-c]pyrazole

> <PUBCHEM_IUPAC_NAME_MARKUP>
5-(3-methoxyprop-1-ynyl)-3-thiophen-2-yl-2,4-dihydroindeno[1,2-c]pyrazole

> <PUBCHEM_IUPAC_NAME>
5-(3-methoxyprop-1-ynyl)-3-thiophen-2-yl-2,4-dihydroindeno[1,2-c]pyrazole

> <PUBCHEM_IUPAC_SYSTEMATIC_NAME>
5-(3-methoxyprop-1-ynyl)-3-thiophen-2-yl-2,4-dihydroindeno[1,2-c]pyrazole

> <PUBCHEM_IUPAC_TRADITIONAL_NAME>
5-(3-methoxyprop-1-ynyl)-3-(2-thienyl)-2,4-dihydroindeno[1,2-c]pyrazole

> <PUBCHEM_IUPAC_INCHI>
InChI=1S/C18H14N2OS/c1-21-9-3-6-12-5-2-7-13-14(12)11-15-17(13)19-20-18(15)16-8-4-10-22-16/h2,4-5,7-8,10H,9,11H2,1H3,(H,19,20)

> <PUBCHEM_IUPAC_INCHIKEY>
LDHYCINFJPCBRY-UHFFFAOYSA-N

> <PUBCHEM_XLOGP3_AA>
3.3

> <PUBCHEM_EXACT_MASS>
306.08268425

> <PUBCHEM_MOLECULAR_FORMULA>
C18H14N2OS

> <PUBCHEM_MOLECULAR_WEIGHT>
306.4

> <PUBCHEM_SMILES>
COCC#CC1=C2CC3=C(NN=C3C2=CC=C1)C4=CC=CS4

> <PUBCHEM_OPENEYE_CAN_SMILES>
COCC#CC1=C2CC3=C(NN=C3C2=CC=C1)C4=CC=CS4

> <PUBCHEM_OPENEYE_ISO_SMILES>
COCC#CC1=C2CC3=C(NN=C3C2=CC=C1)C4=CC=CS4

> <PUBCHEM_CACTVS_TPSA>
66.2

> <PUBCHEM_MONOISOTOPIC_WEIGHT>
306.08268425

> <PUBCHEM_TOTAL_CHARGE>
0

> <PUBCHEM_HEAVY_ATOM_COUNT>
22

> <PUBCHEM_ATOM_DEF_STEREO_COUNT>
0

> <PUBCHEM_ATOM_UDEF_STEREO_COUNT>
0

> <PUBCHEM_BOND_DEF_STEREO_COUNT>
0

> <PUBCHEM_BOND_UDEF_STEREO_COUNT>
0

> <PUBCHEM_ISOTOPIC_ATOM_COUNT>
0

> <PUBCHEM_COMPONENT_COUNT>
1

> <PUBCHEM_CACTVS_TAUTO_COUNT>
-1

> <PUBCHEM_COORDINATE_TYPE>
1
5
255

> <PUBCHEM_BONDANNOTATIONS>
1  13  8
1  19  8
11  14  8
12  15  8
13  16  8
14  15  8
16  18  8
18  19  8
3  10  8
3  4  8
4  8  8
5  10  8
5  8  8
7  11  8
7  9  8
9  12  8

$$$$
