49830720
  -OEChem-03202503012D

 43 46  0     0  0  0  0  0  0999 V2000
    2.0000   -0.1719    0.0000 Cl  0  0  0  0  0  0  0  0  0  0  0  0
    5.4641    1.8282    0.0000 O   0  0  0  0  0  0  0  0  0  0  0  0
    2.0000    1.8282    0.0000 O   0  0  0  0  0  0  0  0  0  0  0  0
    8.0622    0.3281    0.0000 N   0  0  0  0  0  0  0  0  0  0  0  0
    5.4641   -0.1719    0.0000 N   0  0  0  0  0  0  0  0  0  0  0  0
    7.1962   -0.1719    0.0000 N   0  0  0  0  0  0  0  0  0  0  0  0
    9.5920    0.8281    0.0000 N   0  0  0  0  0  0  0  0  0  0  0  0
    9.0084    1.6329    0.0000 N   0  0  0  0  0  0  0  0  0  0  0  0
    9.0084    0.0234    0.0000 C   0  0  0  0  0  0  0  0  0  0  0  0
    8.0622    1.3282    0.0000 C   0  0  0  0  0  0  0  0  0  0  0  0
    6.3301    0.3281    0.0000 C   0  0  0  0  0  0  0  0  0  0  0  0
    4.5981    0.3281    0.0000 C   0  0  0  0  0  0  0  0  0  0  0  0
    9.3191   -0.9271    0.0000 C   0  0  0  0  0  0  0  0  0  0  0  0
    7.1962    1.8282    0.0000 C   0  0  0  0  0  0  0  0  0  0  0  0
    6.3301    1.3282    0.0000 C   0  0  0  0  0  0  0  0  0  0  0  0
    4.5981    1.3282    0.0000 C   0  0  0  0  0  0  0  0  0  0  0  0
    3.7320   -0.1719    0.0000 C   0  0  0  0  0  0  0  0  0  0  0  0
    3.7320    1.8282    0.0000 C   0  0  0  0  0  0  0  0  0  0  0  0
    2.8660    1.3282    0.0000 C   0  0  0  0  0  0  0  0  0  0  0  0
   10.2976   -1.1333    0.0000 C   0  0  0  0  0  0  0  0  0  0  0  0
    8.6512   -1.6714    0.0000 C   0  0  0  0  0  0  0  0  0  0  0  0
    2.8660    0.3281    0.0000 C   0  0  0  0  0  0  0  0  0  0  0  0
   10.6082   -2.0838    0.0000 C   0  0  0  0  0  0  0  0  0  0  0  0
    8.9619   -2.6219    0.0000 C   0  0  0  0  0  0  0  0  0  0  0  0
    9.9404   -2.8282    0.0000 C   0  0  0  0  0  0  0  0  0  0  0  0
    5.4641    2.8282    0.0000 C   0  0  0  0  0  0  0  0  0  0  0  0
    2.0000    2.8282    0.0000 C   0  0  0  0  0  0  0  0  0  0  0  0
    5.4641   -0.7919    0.0000 H   0  0  0  0  0  0  0  0  0  0  0  0
    7.1962    2.4482    0.0000 H   0  0  0  0  0  0  0  0  0  0  0  0
    5.7932    1.6382    0.0000 H   0  0  0  0  0  0  0  0  0  0  0  0
    3.7320   -0.7919    0.0000 H   0  0  0  0  0  0  0  0  0  0  0  0
    3.7320    2.4482    0.0000 H   0  0  0  0  0  0  0  0  0  0  0  0
   10.7116   -0.6719    0.0000 H   0  0  0  0  0  0  0  0  0  0  0  0
    8.0445   -1.5436    0.0000 H   0  0  0  0  0  0  0  0  0  0  0  0
   11.2149   -2.2117    0.0000 H   0  0  0  0  0  0  0  0  0  0  0  0
    8.5478   -3.0834    0.0000 H   0  0  0  0  0  0  0  0  0  0  0  0
   10.1330   -3.4175    0.0000 H   0  0  0  0  0  0  0  0  0  0  0  0
    6.0841    2.8282    0.0000 H   0  0  0  0  0  0  0  0  0  0  0  0
    5.4641    3.4482    0.0000 H   0  0  0  0  0  0  0  0  0  0  0  0
    4.8441    2.8282    0.0000 H   0  0  0  0  0  0  0  0  0  0  0  0
    2.6200    2.8282    0.0000 H   0  0  0  0  0  0  0  0  0  0  0  0
    2.0000    3.4482    0.0000 H   0  0  0  0  0  0  0  0  0  0  0  0
    1.3800    2.8282    0.0000 H   0  0  0  0  0  0  0  0  0  0  0  0
  1 22  1  0  0  0  0
  2 16  1  0  0  0  0
  2 26  1  0  0  0  0
  3 19  1  0  0  0  0
  3 27  1  0  0  0  0
  4  6  1  0  0  0  0
  4  9  1  0  0  0  0
  4 10  1  0  0  0  0
  5 11  1  0  0  0  0
  5 12  1  0  0  0  0
  5 28  1  0  0  0  0
  6 11  2  0  0  0  0
  7  8  1  0  0  0  0
  7  9  2  0  0  0  0
  8 10  2  0  0  0  0
  9 13  1  0  0  0  0
 10 14  1  0  0  0  0
 11 15  1  0  0  0  0
 12 16  1  0  0  0  0
 12 17  2  0  0  0  0
 13 20  2  0  0  0  0
 13 21  1  0  0  0  0
 14 15  2  0  0  0  0
 14 29  1  0  0  0  0
 15 30  1  0  0  0  0
 16 18  2  0  0  0  0
 17 22  1  0  0  0  0
 17 31  1  0  0  0  0
 18 19  1  0  0  0  0
 18 32  1  0  0  0  0
 19 22  2  0  0  0  0
 20 23  1  0  0  0  0
 20 33  1  0  0  0  0
 21 24  2  0  0  0  0
 21 34  1  0  0  0  0
 23 25  2  0  0  0  0
 23 35  1  0  0  0  0
 24 25  1  0  0  0  0
 24 36  1  0  0  0  0
 25 37  1  0  0  0  0
 26 38  1  0  0  0  0
 26 39  1  0  0  0  0
 26 40  1  0  0  0  0
 27 41  1  0  0  0  0
 27 42  1  0  0  0  0
 27 43  1  0  0  0  0
M  END
> <PUBCHEM_COMPOUND_CID>
49830720

> <PUBCHEM_COMPOUND_CANONICALIZED>
1

> <PUBCHEM_CACTVS_COMPLEXITY>
481

> <PUBCHEM_CACTVS_HBOND_ACCEPTOR>
6

> <PUBCHEM_CACTVS_HBOND_DONOR>
1

> <PUBCHEM_CACTVS_ROTATABLE_BOND>
5

> <PUBCHEM_CACTVS_SUBSKEYS>
AAADceB7sAAEAAAAAAAAAAAAAAAAAWAAAAA8YIAAAAAAAFgB9AAAHgIYAAAADA6BmyIz9p7IFACiAiZiZACSjCshJ+AdmCA3b5iOL+PFu5uFsCh12BfY6Cew4AwOAGAACAIAGAAAwAAQBAAwAAAAAAAAAA==

> <PUBCHEM_IUPAC_OPENEYE_NAME>
N-(5-chloro-2,4-dimethoxy-phenyl)-3-phenyl-[1,2,4]triazolo[4,3-b]pyridazin-6-amine

> <PUBCHEM_IUPAC_CAS_NAME>
N-(5-chloro-2,4-dimethoxyphenyl)-3-phenyl-[1,2,4]triazolo[4,3-b]pyridazin-6-amine

> <PUBCHEM_IUPAC_NAME_MARKUP>
<I>N</I>-(5-chloro-2,4-dimethoxyphenyl)-3-phenyl-[1,2,4]triazolo[4,3-b]pyridazin-6-amine

> <PUBCHEM_IUPAC_NAME>
N-(5-chloro-2,4-dimethoxyphenyl)-3-phenyl-[1,2,4]triazolo[4,3-b]pyridazin-6-amine

> <PUBCHEM_IUPAC_SYSTEMATIC_NAME>
N-(5-chloranyl-2,4-dimethoxy-phenyl)-3-phenyl-[1,2,4]triazolo[4,3-b]pyridazin-6-amine

> <PUBCHEM_IUPAC_TRADITIONAL_NAME>
(5-chloro-2,4-dimethoxy-phenyl)-(3-phenyl-[1,2,4]triazolo[4,3-b]pyridazin-6-yl)amine

> <PUBCHEM_IUPAC_INCHI>
InChI=1S/C19H16ClN5O2/c1-26-15-11-16(27-2)14(10-13(15)20)21-17-8-9-18-22-23-19(25(18)24-17)12-6-4-3-5-7-12/h3-11H,1-2H3,(H,21,24)

> <PUBCHEM_IUPAC_INCHIKEY>
XCOXIWXNKPXIEK-UHFFFAOYSA-N

> <PUBCHEM_XLOGP3_AA>
3.8

> <PUBCHEM_EXACT_MASS>
381.0992525

> <PUBCHEM_MOLECULAR_FORMULA>
C19H16ClN5O2

> <PUBCHEM_MOLECULAR_WEIGHT>
381.8

> <PUBCHEM_SMILES>
COC1=CC(=C(C=C1NC2=NN3C(=NN=C3C4=CC=CC=C4)C=C2)Cl)OC

> <PUBCHEM_OPENEYE_CAN_SMILES>
COC1=CC(=C(C=C1NC2=NN3C(=NN=C3C4=CC=CC=C4)C=C2)Cl)OC

> <PUBCHEM_OPENEYE_ISO_SMILES>
COC1=CC(=C(C=C1NC2=NN3C(=NN=C3C4=CC=CC=C4)C=C2)Cl)OC

> <PUBCHEM_CACTVS_TPSA>
73.6

> <PUBCHEM_MONOISOTOPIC_WEIGHT>
381.0992525

> <PUBCHEM_TOTAL_CHARGE>
0

> <PUBCHEM_HEAVY_ATOM_COUNT>
27

> <PUBCHEM_ATOM_DEF_STEREO_COUNT>
0

> <PUBCHEM_ATOM_UDEF_STEREO_COUNT>
0

> <PUBCHEM_BOND_DEF_STEREO_COUNT>
0

> <PUBCHEM_BOND_UDEF_STEREO_COUNT>
0

> <PUBCHEM_ISOTOPIC_ATOM_COUNT>
0

> <PUBCHEM_COMPONENT_COUNT>
1

> <PUBCHEM_CACTVS_TAUTO_COUNT>
-1

> <PUBCHEM_COORDINATE_TYPE>
1
5
255

> <PUBCHEM_BONDANNOTATIONS>
10  14  8
11  15  8
12  16  8
12  17  8
13  20  8
13  21  8
14  15  8
16  18  8
17  22  8
18  19  8
19  22  8
20  23  8
21  24  8
23  25  8
24  25  8
4  10  8
4  6  8
4  9  8
6  11  8
7  8  8
7  9  8
8  10  8

$$$$
