49830315
  -OEChem-03202503192D

 43 46  0     1  0  0  0  0  0999 V2000
    7.2566    0.2923    0.0000 Cl  0  0  0  0  0  0  0  0  0  0  0  0
    3.9639    1.3684    0.0000 N   0  0  0  0  0  0  0  0  0  0  0  0
    2.6282    2.8570    0.0000 N   0  0  0  0  0  0  0  0  0  0  0  0
    4.3211   -0.3264    0.0000 N   0  0  0  0  0  0  0  0  0  0  0  0
    5.6103    0.8304    0.0000 N   0  0  0  0  0  0  0  0  0  0  0  0
    4.6783   -3.6307    0.0000 N   0  0  0  0  0  0  0  0  0  0  0  0
    2.8660   -3.8259    0.0000 N   0  0  0  0  0  0  0  0  0  0  0  0
    4.2746    2.3190    0.0000 C   0  0  3  0  0  0  0  0  0  0  0  0
    3.6067    3.0633    0.0000 C   0  0  3  0  0  0  0  0  0  0  0  0
    5.2531    2.5252    0.0000 C   0  0  0  0  0  0  0  0  0  0  0  0
    3.9174    4.0138    0.0000 C   0  0  0  0  0  0  0  0  0  0  0  0
    5.5637    3.4757    0.0000 C   0  0  0  0  0  0  0  0  0  0  0  0
    4.8959    4.2200    0.0000 C   0  0  0  0  0  0  0  0  0  0  0  0
    4.6318    0.6241    0.0000 C   0  0  0  0  0  0  0  0  0  0  0  0
    4.9889   -1.0707    0.0000 C   0  0  0  0  0  0  0  0  0  0  0  0
    4.6783   -2.0212    0.0000 C   0  0  0  0  0  0  0  0  0  0  0  0
    3.7320   -2.3259    0.0000 C   0  0  0  0  0  0  0  0  0  0  0  0
    5.9674   -0.8645    0.0000 C   0  0  0  0  0  0  0  0  0  0  0  0
    6.2781    0.0861    0.0000 C   0  0  0  0  0  0  0  0  0  0  0  0
    3.7320   -3.3259    0.0000 C   0  0  0  0  0  0  0  0  0  0  0  0
    5.2619   -2.8259    0.0000 C   0  0  0  0  0  0  0  0  0  0  0  0
    2.8660   -1.8259    0.0000 C   0  0  0  0  0  0  0  0  0  0  0  0
    2.0000   -2.3259    0.0000 C   0  0  0  0  0  0  0  0  0  0  0  0
    2.0000   -3.3259    0.0000 C   0  0  0  0  0  0  0  0  0  0  0  0
    4.6886    1.8575    0.0000 H   0  0  0  0  0  0  0  0  0  0  0  0
    3.4141    2.4739    0.0000 H   0  0  0  0  0  0  0  0  0  0  0  0
    5.2736    1.9055    0.0000 H   0  0  0  0  0  0  0  0  0  0  0  0
    5.8669    2.4378    0.0000 H   0  0  0  0  0  0  0  0  0  0  0  0
    3.8968    4.6334    0.0000 H   0  0  0  0  0  0  0  0  0  0  0  0
    3.3036    4.1011    0.0000 H   0  0  0  0  0  0  0  0  0  0  0  0
    6.1107    3.1837    0.0000 H   0  0  0  0  0  0  0  0  0  0  0  0
    5.9463    3.9636    0.0000 H   0  0  0  0  0  0  0  0  0  0  0  0
    5.4222    4.5476    0.0000 H   0  0  0  0  0  0  0  0  0  0  0  0
    4.6646    4.7952    0.0000 H   0  0  0  0  0  0  0  0  0  0  0  0
    3.3572    1.2406    0.0000 H   0  0  0  0  0  0  0  0  0  0  0  0
    2.2142    3.3185    0.0000 H   0  0  0  0  0  0  0  0  0  0  0  0
    2.4356    2.2677    0.0000 H   0  0  0  0  0  0  0  0  0  0  0  0
    6.3815   -1.3259    0.0000 H   0  0  0  0  0  0  0  0  0  0  0  0
    5.8819   -2.8259    0.0000 H   0  0  0  0  0  0  0  0  0  0  0  0
    4.8709   -4.2200    0.0000 H   0  0  0  0  0  0  0  0  0  0  0  0
    2.8660   -1.2059    0.0000 H   0  0  0  0  0  0  0  0  0  0  0  0
    1.4631   -2.0159    0.0000 H   0  0  0  0  0  0  0  0  0  0  0  0
    1.4631   -3.6359    0.0000 H   0  0  0  0  0  0  0  0  0  0  0  0
  1 19  1  0  0  0  0
  2  8  1  0  0  0  0
  2 14  1  0  0  0  0
  2 35  1  0  0  0  0
  3  9  1  0  0  0  0
  3 36  1  0  0  0  0
  3 37  1  0  0  0  0
  4 14  2  0  0  0  0
  4 15  1  0  0  0  0
  5 14  1  0  0  0  0
  5 19  2  0  0  0  0
  6 20  1  0  0  0  0
  6 21  1  0  0  0  0
  6 40  1  0  0  0  0
  7 20  1  0  0  0  0
  7 24  2  0  0  0  0
  8  9  1  0  0  0  0
  8 10  1  0  0  0  0
  8 25  1  0  0  0  0
  9 11  1  0  0  0  0
  9 26  1  0  0  0  0
 10 12  1  0  0  0  0
 10 27  1  0  0  0  0
 10 28  1  0  0  0  0
 11 13  1  0  0  0  0
 11 29  1  0  0  0  0
 11 30  1  0  0  0  0
 12 13  1  0  0  0  0
 12 31  1  0  0  0  0
 12 32  1  0  0  0  0
 13 33  1  0  0  0  0
 13 34  1  0  0  0  0
 15 16  1  0  0  0  0
 15 18  2  0  0  0  0
 16 17  1  0  0  0  0
 16 21  2  0  0  0  0
 17 20  2  0  0  0  0
 17 22  1  0  0  0  0
 18 19  1  0  0  0  0
 18 38  1  0  0  0  0
 21 39  1  0  0  0  0
 22 23  2  0  0  0  0
 22 41  1  0  0  0  0
 23 24  1  0  0  0  0
 23 42  1  0  0  0  0
 24 43  1  0  0  0  0
M  END
> <PUBCHEM_COMPOUND_CID>
49830315

> <PUBCHEM_COMPOUND_CANONICALIZED>
1

> <PUBCHEM_CACTVS_COMPLEXITY>
424

> <PUBCHEM_CACTVS_HBOND_ACCEPTOR>
5

> <PUBCHEM_CACTVS_HBOND_DONOR>
3

> <PUBCHEM_CACTVS_ROTATABLE_BOND>
3

> <PUBCHEM_CACTVS_SUBSKEYS>
AAADceB7gAAEAAAAAAAAAAAAAAAAAWAAAAA8WIAAAAAAAFgB/gAAHAIQAAAADCrBHyQ9sN7JkACgAzZnZACCgCmxB6AJ2aA4ZpiIaOLB29GUJAhokALIyCcQgIAOgAAAAAAAAAAAAAAAAAAAQAAAAAAAAA==

> <PUBCHEM_IUPAC_OPENEYE_NAME>
N2-[4-chloro-6-(1H-pyrrolo[2,3-b]pyridin-3-yl)pyrimidin-2-yl]cyclohexane-1,2-diamine

> <PUBCHEM_IUPAC_CAS_NAME>
N2-[4-chloro-6-(1H-pyrrolo[2,3-b]pyridin-3-yl)-2-pyrimidinyl]cyclohexane-1,2-diamine

> <PUBCHEM_IUPAC_NAME_MARKUP>
2-<I>N</I>-[4-chloro-6-(1<I>H</I>-pyrrolo[2,3-b]pyridin-3-yl)pyrimidin-2-yl]cyclohexane-1,2-diamine

> <PUBCHEM_IUPAC_NAME>
2-N-[4-chloro-6-(1H-pyrrolo[2,3-b]pyridin-3-yl)pyrimidin-2-yl]cyclohexane-1,2-diamine

> <PUBCHEM_IUPAC_SYSTEMATIC_NAME>
N2-[4-chloranyl-6-(1H-pyrrolo[2,3-b]pyridin-3-yl)pyrimidin-2-yl]cyclohexane-1,2-diamine

> <PUBCHEM_IUPAC_TRADITIONAL_NAME>
(2-aminocyclohexyl)-[4-chloro-6-(1H-pyrrolo[2,3-b]pyridin-3-yl)pyrimidin-2-yl]amine

> <PUBCHEM_IUPAC_INCHI>
InChI=1S/C17H19ClN6/c18-15-8-14(11-9-21-16-10(11)4-3-7-20-16)23-17(24-15)22-13-6-2-1-5-12(13)19/h3-4,7-9,12-13H,1-2,5-6,19H2,(H,20,21)(H,22,23,24)

> <PUBCHEM_IUPAC_INCHIKEY>
DQPYZHUAILXFJI-UHFFFAOYSA-N

> <PUBCHEM_XLOGP3_AA>
2.9

> <PUBCHEM_EXACT_MASS>
342.1359723

> <PUBCHEM_MOLECULAR_FORMULA>
C17H19ClN6

> <PUBCHEM_MOLECULAR_WEIGHT>
342.8

> <PUBCHEM_SMILES>
C1CCC(C(C1)N)NC2=NC(=CC(=N2)Cl)C3=CNC4=C3C=CC=N4

> <PUBCHEM_OPENEYE_CAN_SMILES>
C1CCC(C(C1)N)NC2=NC(=CC(=N2)Cl)C3=CNC4=C3C=CC=N4

> <PUBCHEM_OPENEYE_ISO_SMILES>
C1CCC(C(C1)N)NC2=NC(=CC(=N2)Cl)C3=CNC4=C3C=CC=N4

> <PUBCHEM_CACTVS_TPSA>
92.5

> <PUBCHEM_MONOISOTOPIC_WEIGHT>
342.1359723

> <PUBCHEM_TOTAL_CHARGE>
0

> <PUBCHEM_HEAVY_ATOM_COUNT>
24

> <PUBCHEM_ATOM_DEF_STEREO_COUNT>
0

> <PUBCHEM_ATOM_UDEF_STEREO_COUNT>
2

> <PUBCHEM_BOND_DEF_STEREO_COUNT>
0

> <PUBCHEM_BOND_UDEF_STEREO_COUNT>
0

> <PUBCHEM_ISOTOPIC_ATOM_COUNT>
0

> <PUBCHEM_COMPONENT_COUNT>
1

> <PUBCHEM_CACTVS_TAUTO_COUNT>
-1

> <PUBCHEM_COORDINATE_TYPE>
1
5
255

> <PUBCHEM_BONDANNOTATIONS>
15  18  8
16  17  8
16  21  8
17  20  8
17  22  8
18  19  8
8  2  3
22  23  8
23  24  8
9  3  3
4  14  8
4  15  8
5  14  8
5  19  8
6  20  8
6  21  8
7  20  8
7  24  8

$$$$
