5703619
  -OEChem-03202504582D

 37 40  0     0  0  0  0  0  0999 V2000
    6.2619   -2.3554    0.0000 O   0  0  0  0  0  0  0  0  0  0  0  0
    7.2474    3.7495    0.0000 O   0  5  0  0  0  0  0  0  0  0  0  0
    8.1108    2.2480    0.0000 O   0  0  0  0  0  0  0  0  0  0  0  0
    4.6783   -3.1601    0.0000 N   0  0  0  0  0  0  0  0  0  0  0  0
    7.3701    0.4127    0.0000 N   0  0  0  0  0  0  0  0  0  0  0  0
    7.5763   -0.5658    0.0000 N   0  0  0  0  0  0  0  0  0  0  0  0
    7.2456    2.7495    0.0000 N   0  3  0  0  0  0  0  0  0  0  0  0
    4.6783   -1.5507    0.0000 C   0  0  0  0  0  0  0  0  0  0  0  0
    3.7320   -1.8554    0.0000 C   0  0  0  0  0  0  0  0  0  0  0  0
    3.7320   -2.8554    0.0000 C   0  0  0  0  0  0  0  0  0  0  0  0
    5.9674   -0.3939    0.0000 C   0  0  0  0  0  0  0  0  0  0  0  0
    6.3758    0.5189    0.0000 C   0  0  0  0  0  0  0  0  0  0  0  0
    4.9889   -0.6001    0.0000 C   0  0  0  0  0  0  0  0  0  0  0  0
    5.2619   -2.3554    0.0000 C   0  0  0  0  0  0  0  0  0  0  0  0
    5.8772    1.3858    0.0000 C   0  0  0  0  0  0  0  0  0  0  0  0
    2.8660   -1.3554    0.0000 C   0  0  0  0  0  0  0  0  0  0  0  0
    2.8660   -3.3554    0.0000 C   0  0  0  0  0  0  0  0  0  0  0  0
    6.7094   -1.0643    0.0000 C   0  0  0  0  0  0  0  0  0  0  0  0
    6.3788    2.2510    0.0000 C   0  0  0  0  0  0  0  0  0  0  0  0
    2.0000   -1.8554    0.0000 C   0  0  0  0  0  0  0  0  0  0  0  0
    4.8773    1.3875    0.0000 C   0  0  0  0  0  0  0  0  0  0  0  0
    2.0000   -2.8554    0.0000 C   0  0  0  0  0  0  0  0  0  0  0  0
    5.8802    3.1178    0.0000 C   0  0  0  0  0  0  0  0  0  0  0  0
    4.3788    2.2544    0.0000 C   0  0  0  0  0  0  0  0  0  0  0  0
    4.8802    3.1196    0.0000 C   0  0  0  0  0  0  0  0  0  0  0  0
    4.5749   -0.1387    0.0000 H   0  0  0  0  0  0  0  0  0  0  0  0
    4.8709   -3.7495    0.0000 H   0  0  0  0  0  0  0  0  0  0  0  0
    2.8660   -0.7354    0.0000 H   0  0  0  0  0  0  0  0  0  0  0  0
    2.8660   -3.9754    0.0000 H   0  0  0  0  0  0  0  0  0  0  0  0
    6.6436   -1.6808    0.0000 H   0  0  0  0  0  0  0  0  0  0  0  0
    7.9601    0.6032    0.0000 H   0  0  0  0  0  0  0  0  0  0  0  0
    4.5663    0.8511    0.0000 H   0  0  0  0  0  0  0  0  0  0  0  0
    1.4631   -1.5454    0.0000 H   0  0  0  0  0  0  0  0  0  0  0  0
    1.4631   -3.1654    0.0000 H   0  0  0  0  0  0  0  0  0  0  0  0
    6.1912    3.6542    0.0000 H   0  0  0  0  0  0  0  0  0  0  0  0
    3.7588    2.2555    0.0000 H   0  0  0  0  0  0  0  0  0  0  0  0
    4.5712    3.6570    0.0000 H   0  0  0  0  0  0  0  0  0  0  0  0
  1 14  2  0  0  0  0
  2  7  1  0  0  0  0
  3  7  2  0  0  0  0
  4 10  1  0  0  0  0
  4 14  1  0  0  0  0
  4 27  1  0  0  0  0
  5  6  1  0  0  0  0
  5 12  1  0  0  0  0
  5 31  1  0  0  0  0
  6 18  2  0  0  0  0
  7 19  1  0  0  0  0
  8  9  1  0  0  0  0
  8 13  2  0  0  0  0
  8 14  1  0  0  0  0
  9 10  1  0  0  0  0
  9 16  2  0  0  0  0
 10 17  2  0  0  0  0
 11 12  2  0  0  0  0
 11 13  1  0  0  0  0
 11 18  1  0  0  0  0
 12 15  1  0  0  0  0
 13 26  1  0  0  0  0
 15 19  1  0  0  0  0
 15 21  2  0  0  0  0
 16 20  1  0  0  0  0
 16 28  1  0  0  0  0
 17 22  1  0  0  0  0
 17 29  1  0  0  0  0
 18 30  1  0  0  0  0
 19 23  2  0  0  0  0
 20 22  2  0  0  0  0
 20 33  1  0  0  0  0
 21 24  1  0  0  0  0
 21 32  1  0  0  0  0
 22 34  1  0  0  0  0
 23 25  1  0  0  0  0
 23 35  1  0  0  0  0
 24 25  2  0  0  0  0
 24 36  1  0  0  0  0
 25 37  1  0  0  0  0
M  CHG  2   2  -1   7   1
M  END
> <PUBCHEM_COMPOUND_CID>
5703619

> <PUBCHEM_COMPOUND_CANONICALIZED>
1

> <PUBCHEM_CACTVS_COMPLEXITY>
573

> <PUBCHEM_CACTVS_HBOND_ACCEPTOR>
4

> <PUBCHEM_CACTVS_HBOND_DONOR>
2

> <PUBCHEM_CACTVS_ROTATABLE_BOND>
2

> <PUBCHEM_CACTVS_SUBSKEYS>
AAADccB7sAAAAAAAAAAAAAAAAAAAAWLAAAAwYAAAAAAAAFgB0AAAHgAcAAAADAjBngQ8wJLzQACrAzV3UwCSBAAhggA4uSEgZNoIILLA1dGEpAhgnADIyYcciMCOAAAAAAACAAAAAAAAAAQAAAAAAAAAAA==

> <PUBCHEM_IUPAC_OPENEYE_NAME>
(3Z)-3-[[5-(2-nitrophenyl)-1H-pyrazol-4-yl]methylene]indolin-2-one

> <PUBCHEM_IUPAC_CAS_NAME>
(3Z)-3-[[5-(2-nitrophenyl)-1H-pyrazol-4-yl]methylidene]-1H-indol-2-one

> <PUBCHEM_IUPAC_NAME_MARKUP>
(3<I>Z</I>)-3-[[5-(2-nitrophenyl)-1<I>H</I>-pyrazol-4-yl]methylidene]-1<I>H</I>-indol-2-one

> <PUBCHEM_IUPAC_NAME>
(3Z)-3-[[5-(2-nitrophenyl)-1H-pyrazol-4-yl]methylidene]-1H-indol-2-one

> <PUBCHEM_IUPAC_SYSTEMATIC_NAME>
(3Z)-3-[[5-(2-nitrophenyl)-1H-pyrazol-4-yl]methylidene]-1H-indol-2-one

> <PUBCHEM_IUPAC_TRADITIONAL_NAME>
(3Z)-3-[[5-(2-nitrophenyl)-1H-pyrazol-4-yl]methylene]oxindole

> <PUBCHEM_IUPAC_INCHI>
InChI=1S/C18H12N4O3/c23-18-14(12-5-1-3-7-15(12)20-18)9-11-10-19-21-17(11)13-6-2-4-8-16(13)22(24)25/h1-10H,(H,19,21)(H,20,23)/b14-9-

> <PUBCHEM_IUPAC_INCHIKEY>
XLYVQVWMTOLDNL-ZROIWOOFSA-N

> <PUBCHEM_XLOGP3_AA>
2.7

> <PUBCHEM_EXACT_MASS>
332.09094026

> <PUBCHEM_MOLECULAR_FORMULA>
C18H12N4O3

> <PUBCHEM_MOLECULAR_WEIGHT>
332.3

> <PUBCHEM_SMILES>
C1=CC=C2C(=C1)/C(=C/C3=C(NN=C3)C4=CC=CC=C4[N+](=O)[O-])/C(=O)N2

> <PUBCHEM_OPENEYE_CAN_SMILES>
C1=CC=C2C(=C1)C(=CC3=C(NN=C3)C4=CC=CC=C4[N+](=O)[O-])C(=O)N2

> <PUBCHEM_OPENEYE_ISO_SMILES>
C1=CC=C2C(=C1)/C(=C/C3=C(NN=C3)C4=CC=CC=C4[N+](=O)[O-])/C(=O)N2

> <PUBCHEM_CACTVS_TPSA>
104

> <PUBCHEM_MONOISOTOPIC_WEIGHT>
332.09094026

> <PUBCHEM_TOTAL_CHARGE>
0

> <PUBCHEM_HEAVY_ATOM_COUNT>
25

> <PUBCHEM_ATOM_DEF_STEREO_COUNT>
0

> <PUBCHEM_ATOM_UDEF_STEREO_COUNT>
0

> <PUBCHEM_BOND_DEF_STEREO_COUNT>
1

> <PUBCHEM_BOND_UDEF_STEREO_COUNT>
0

> <PUBCHEM_ISOTOPIC_ATOM_COUNT>
0

> <PUBCHEM_COMPONENT_COUNT>
1

> <PUBCHEM_CACTVS_TAUTO_COUNT>
-1

> <PUBCHEM_COORDINATE_TYPE>
1
5
255

> <PUBCHEM_BONDANNOTATIONS>
10  17  8
11  12  8
11  18  8
15  19  8
15  21  8
16  20  8
17  22  8
19  23  8
20  22  8
21  24  8
23  25  8
24  25  8
5  12  8
5  6  8
6  18  8
9  10  8
9  16  8

$$$$
