135947978
  -OEChem-03192523492D

 39 41  0     0  0  0  0  0  0999 V2000
    7.2566    1.8338    0.0000 O   0  0  0  0  0  0  0  0  0  0  0  0
    5.9209    3.3224    0.0000 O   0  0  0  0  0  0  0  0  0  0  0  0
    4.6783   -2.0891    0.0000 N   0  0  0  0  0  0  0  0  0  0  0  0
    5.2619   -1.2844    0.0000 N   0  0  0  0  0  0  0  0  0  0  0  0
    2.8660   -2.2844    0.0000 N   0  0  0  0  0  0  0  0  0  0  0  0
    2.0000   -0.7844    0.0000 N   0  0  0  0  0  0  0  0  0  0  0  0
    2.8660    0.7156    0.0000 N   0  0  0  0  0  0  0  0  0  0  0  0
    4.9889   -3.0396    0.0000 C   0  0  0  0  0  0  0  0  0  0  0  0
    3.7320   -1.7844    0.0000 C   0  0  0  0  0  0  0  0  0  0  0  0
    3.7320   -0.7844    0.0000 C   0  0  0  0  0  0  0  0  0  0  0  0
    4.6783   -0.4796    0.0000 C   0  0  0  0  0  0  0  0  0  0  0  0
    5.9674   -3.2458    0.0000 C   0  0  0  0  0  0  0  0  0  0  0  0
    4.3211   -3.7839    0.0000 C   0  0  0  0  0  0  0  0  0  0  0  0
    4.9889    0.4709    0.0000 C   0  0  0  0  0  0  0  0  0  0  0  0
    2.8660   -0.2844    0.0000 C   0  0  0  0  0  0  0  0  0  0  0  0
    5.9674    0.6771    0.0000 C   0  0  0  0  0  0  0  0  0  0  0  0
    4.3211    1.2152    0.0000 C   0  0  0  0  0  0  0  0  0  0  0  0
    6.2781    1.6276    0.0000 C   0  0  0  0  0  0  0  0  0  0  0  0
    2.0000   -1.7844    0.0000 C   0  0  0  0  0  0  0  0  0  0  0  0
    4.6318    2.1657    0.0000 C   0  0  0  0  0  0  0  0  0  0  0  0
    5.6103    2.3719    0.0000 C   0  0  0  0  0  0  0  0  0  0  0  0
    7.9244    1.0896    0.0000 C   0  0  0  0  0  0  0  0  0  0  0  0
    5.1815   -3.6289    0.0000 H   0  0  0  0  0  0  0  0  0  0  0  0
    5.8396   -3.8525    0.0000 H   0  0  0  0  0  0  0  0  0  0  0  0
    6.5741   -3.3737    0.0000 H   0  0  0  0  0  0  0  0  0  0  0  0
    6.0953   -2.6392    0.0000 H   0  0  0  0  0  0  0  0  0  0  0  0
    3.8596   -3.3698    0.0000 H   0  0  0  0  0  0  0  0  0  0  0  0
    3.9070   -4.2454    0.0000 H   0  0  0  0  0  0  0  0  0  0  0  0
    4.7826   -4.1980    0.0000 H   0  0  0  0  0  0  0  0  0  0  0  0
    6.3815    0.2156    0.0000 H   0  0  0  0  0  0  0  0  0  0  0  0
    3.7144    1.0873    0.0000 H   0  0  0  0  0  0  0  0  0  0  0  0
    1.4631   -2.0944    0.0000 H   0  0  0  0  0  0  0  0  0  0  0  0
    4.2177    2.6272    0.0000 H   0  0  0  0  0  0  0  0  0  0  0  0
    2.3291    1.0256    0.0000 H   0  0  0  0  0  0  0  0  0  0  0  0
    3.4030    1.0256    0.0000 H   0  0  0  0  0  0  0  0  0  0  0  0
    5.5069    3.7839    0.0000 H   0  0  0  0  0  0  0  0  0  0  0  0
    7.4630    0.6755    0.0000 H   0  0  0  0  0  0  0  0  0  0  0  0
    8.3385    0.6281    0.0000 H   0  0  0  0  0  0  0  0  0  0  0  0
    8.3859    1.5036    0.0000 H   0  0  0  0  0  0  0  0  0  0  0  0
  1 18  1  0  0  0  0
  1 22  1  0  0  0  0
  2 21  1  0  0  0  0
  2 36  1  0  0  0  0
  3  4  1  0  0  0  0
  3  8  1  0  0  0  0
  3  9  1  0  0  0  0
  4 11  2  0  0  0  0
  5  9  2  0  0  0  0
  5 19  1  0  0  0  0
  6 15  1  0  0  0  0
  6 19  2  0  0  0  0
  7 15  1  0  0  0  0
  7 34  1  0  0  0  0
  7 35  1  0  0  0  0
  8 12  1  0  0  0  0
  8 13  1  0  0  0  0
  8 23  1  0  0  0  0
  9 10  1  0  0  0  0
 10 11  1  0  0  0  0
 10 15  2  0  0  0  0
 11 14  1  0  0  0  0
 12 24  1  0  0  0  0
 12 25  1  0  0  0  0
 12 26  1  0  0  0  0
 13 27  1  0  0  0  0
 13 28  1  0  0  0  0
 13 29  1  0  0  0  0
 14 16  2  0  0  0  0
 14 17  1  0  0  0  0
 16 18  1  0  0  0  0
 16 30  1  0  0  0  0
 17 20  2  0  0  0  0
 17 31  1  0  0  0  0
 18 21  2  0  0  0  0
 19 32  1  0  0  0  0
 20 21  1  0  0  0  0
 20 33  1  0  0  0  0
 22 37  1  0  0  0  0
 22 38  1  0  0  0  0
 22 39  1  0  0  0  0
M  END
> <PUBCHEM_COMPOUND_CID>
135947978

> <PUBCHEM_COMPOUND_CANONICALIZED>
1

> <PUBCHEM_CACTVS_COMPLEXITY>
383

> <PUBCHEM_CACTVS_HBOND_ACCEPTOR>
6

> <PUBCHEM_CACTVS_HBOND_DONOR>
2

> <PUBCHEM_CACTVS_ROTATABLE_BOND>
3

> <PUBCHEM_CACTVS_SUBSKEYS>
AAADceBzsAAAAAAAAAAAAAAAAAAAAWAAAAA8QAAAAAAAAFgB/AAAHgAYCAAADCzBnwY3tt5IFgCiAyZjZACSjCsxoKAd2CAuzJiNLqLG+duE9CtsyBPL+Cew0PEOIAABAAAAQABAAAIAAACAAAAAAAAAAA==

> <PUBCHEM_IUPAC_OPENEYE_NAME>
4-(4-amino-1-isopropyl-pyrazolo[3,4-d]pyrimidin-3-yl)-2-methoxy-phenol

> <PUBCHEM_IUPAC_CAS_NAME>
4-(4-amino-1-propan-2-yl-3-pyrazolo[3,4-d]pyrimidinyl)-2-methoxyphenol

> <PUBCHEM_IUPAC_NAME_MARKUP>
4-(4-amino-1-propan-2-ylpyrazolo[3,4-d]pyrimidin-3-yl)-2-methoxyphenol

> <PUBCHEM_IUPAC_NAME>
4-(4-amino-1-propan-2-ylpyrazolo[3,4-d]pyrimidin-3-yl)-2-methoxyphenol

> <PUBCHEM_IUPAC_SYSTEMATIC_NAME>
4-(4-azanyl-1-propan-2-yl-pyrazolo[3,4-d]pyrimidin-3-yl)-2-methoxy-phenol

> <PUBCHEM_IUPAC_TRADITIONAL_NAME>
4-(4-amino-1-isopropyl-pyrazolo[3,4-d]pyrimidin-3-yl)-2-methoxy-phenol

> <PUBCHEM_IUPAC_INCHI>
InChI=1S/C15H17N5O2/c1-8(2)20-15-12(14(16)17-7-18-15)13(19-20)9-4-5-10(21)11(6-9)22-3/h4-8,21H,1-3H3,(H2,16,17,18)

> <PUBCHEM_IUPAC_INCHIKEY>
BZYKWEQWEPHEQZ-UHFFFAOYSA-N

> <PUBCHEM_XLOGP3_AA>
1.8

> <PUBCHEM_EXACT_MASS>
299.13822480

> <PUBCHEM_MOLECULAR_FORMULA>
C15H17N5O2

> <PUBCHEM_MOLECULAR_WEIGHT>
299.33

> <PUBCHEM_SMILES>
CC(C)N1C2=NC=NC(=C2C(=N1)C3=CC(=C(C=C3)O)OC)N

> <PUBCHEM_OPENEYE_CAN_SMILES>
CC(C)N1C2=NC=NC(=C2C(=N1)C3=CC(=C(C=C3)O)OC)N

> <PUBCHEM_OPENEYE_ISO_SMILES>
CC(C)N1C2=NC=NC(=C2C(=N1)C3=CC(=C(C=C3)O)OC)N

> <PUBCHEM_CACTVS_TPSA>
99.1

> <PUBCHEM_MONOISOTOPIC_WEIGHT>
299.13822480

> <PUBCHEM_TOTAL_CHARGE>
0

> <PUBCHEM_HEAVY_ATOM_COUNT>
22

> <PUBCHEM_ATOM_DEF_STEREO_COUNT>
0

> <PUBCHEM_ATOM_UDEF_STEREO_COUNT>
0

> <PUBCHEM_BOND_DEF_STEREO_COUNT>
0

> <PUBCHEM_BOND_UDEF_STEREO_COUNT>
0

> <PUBCHEM_ISOTOPIC_ATOM_COUNT>
0

> <PUBCHEM_COMPONENT_COUNT>
1

> <PUBCHEM_CACTVS_TAUTO_COUNT>
-1

> <PUBCHEM_COORDINATE_TYPE>
1
5
255

> <PUBCHEM_BONDANNOTATIONS>
10  11  8
10  15  8
14  16  8
14  17  8
16  18  8
17  20  8
18  21  8
20  21  8
3  4  8
3  9  8
4  11  8
5  19  8
5  9  8
6  15  8
6  19  8
9  10  8

$$$$
