49830682
  -OEChem-03202501092D

 36 38  0     0  0  0  0  0  0999 V2000
    3.3660   -4.7152    0.0000 F   0  0  0  0  0  0  0  0  0  0  0  0
    2.0000   -4.3491    0.0000 F   0  0  0  0  0  0  0  0  0  0  0  0
    2.3660   -2.9831    0.0000 F   0  0  0  0  0  0  0  0  0  0  0  0
    8.0784   -0.7945    0.0000 O   0  0  0  0  0  0  0  0  0  0  0  0
    6.3465   -0.8145    0.0000 N   0  0  0  0  0  0  0  0  0  0  0  0
    6.3580   -3.8838    0.0000 N   0  0  0  0  0  0  0  0  0  0  0  0
    7.1951    0.6954    0.0000 N   0  0  0  0  0  0  0  0  0  0  0  0
    8.0437    2.2053    0.0000 N   0  0  0  0  0  0  0  0  0  0  0  0
    8.8808    4.7152    0.0000 N   0  0  0  0  0  0  0  0  0  0  0  0
    5.4641   -2.3491    0.0000 C   0  0  0  0  0  0  0  0  0  0  0  0
    5.4641   -3.3491    0.0000 C   0  0  0  0  0  0  0  0  0  0  0  0
    6.3580   -1.8145    0.0000 C   0  0  0  0  0  0  0  0  0  0  0  0
    3.7320   -3.3491    0.0000 C   0  0  0  0  0  0  0  0  0  0  0  0
    4.5981   -1.8491    0.0000 C   0  0  0  0  0  0  0  0  0  0  0  0
    4.5981   -3.8491    0.0000 C   0  0  0  0  0  0  0  0  0  0  0  0
    3.7320   -2.3491    0.0000 C   0  0  0  0  0  0  0  0  0  0  0  0
    7.2641   -2.3283    0.0000 C   0  0  0  0  0  0  0  0  0  0  0  0
    2.8660   -3.8491    0.0000 C   0  0  0  0  0  0  0  0  0  0  0  0
    7.2641   -3.3699    0.0000 C   0  0  0  0  0  0  0  0  0  0  0  0
    7.2067   -0.3045    0.0000 C   0  0  0  0  0  0  0  0  0  0  0  0
    8.0553    1.2054    0.0000 C   0  0  0  0  0  0  0  0  0  0  0  0
    8.9270    0.7154    0.0000 C   0  0  0  0  0  0  0  0  0  0  0  0
    9.7872    1.2254    0.0000 C   0  0  0  0  0  0  0  0  0  0  0  0
    8.9039    2.7153    0.0000 C   0  0  0  0  0  0  0  0  0  0  0  0
    9.7757    2.2253    0.0000 C   0  0  0  0  0  0  0  0  0  0  0  0
    8.8924    3.7152    0.0000 C   0  0  0  0  0  0  0  0  0  0  0  0
    4.5981   -1.2291    0.0000 H   0  0  0  0  0  0  0  0  0  0  0  0
    4.5981   -4.4691    0.0000 H   0  0  0  0  0  0  0  0  0  0  0  0
    3.1951   -2.0391    0.0000 H   0  0  0  0  0  0  0  0  0  0  0  0
    7.7998   -2.0162    0.0000 H   0  0  0  0  0  0  0  0  0  0  0  0
    5.8060   -0.5108    0.0000 H   0  0  0  0  0  0  0  0  0  0  0  0
    7.7998   -3.6820    0.0000 H   0  0  0  0  0  0  0  0  0  0  0  0
    6.6546    0.9992    0.0000 H   0  0  0  0  0  0  0  0  0  0  0  0
    8.9342    0.0955    0.0000 H   0  0  0  0  0  0  0  0  0  0  0  0
   10.3277    0.9216    0.0000 H   0  0  0  0  0  0  0  0  0  0  0  0
   10.3090    2.5415    0.0000 H   0  0  0  0  0  0  0  0  0  0  0  0
  1 18  1  0  0  0  0
  2 18  1  0  0  0  0
  3 18  1  0  0  0  0
  4 20  2  0  0  0  0
  5 12  1  0  0  0  0
  5 20  1  0  0  0  0
  5 31  1  0  0  0  0
  6 11  2  0  0  0  0
  6 19  1  0  0  0  0
  7 20  1  0  0  0  0
  7 21  1  0  0  0  0
  7 33  1  0  0  0  0
  8 21  1  0  0  0  0
  8 24  2  0  0  0  0
  9 26  3  0  0  0  0
 10 11  1  0  0  0  0
 10 12  2  0  0  0  0
 10 14  1  0  0  0  0
 11 15  1  0  0  0  0
 12 17  1  0  0  0  0
 13 15  2  0  0  0  0
 13 16  1  0  0  0  0
 13 18  1  0  0  0  0
 14 16  2  0  0  0  0
 14 27  1  0  0  0  0
 15 28  1  0  0  0  0
 16 29  1  0  0  0  0
 17 19  2  0  0  0  0
 17 30  1  0  0  0  0
 19 32  1  0  0  0  0
 21 22  2  0  0  0  0
 22 23  1  0  0  0  0
 22 34  1  0  0  0  0
 23 25  2  0  0  0  0
 23 35  1  0  0  0  0
 24 25  1  0  0  0  0
 24 26  1  0  0  0  0
 25 36  1  0  0  0  0
M  END
> <PUBCHEM_COMPOUND_CID>
49830682

> <PUBCHEM_COMPOUND_CANONICALIZED>
1

> <PUBCHEM_CACTVS_COMPLEXITY>
560

> <PUBCHEM_CACTVS_HBOND_ACCEPTOR>
7

> <PUBCHEM_CACTVS_HBOND_DONOR>
2

> <PUBCHEM_CACTVS_ROTATABLE_BOND>
2

> <PUBCHEM_CACTVS_SUBSKEYS>
AAADccB7oYAAAAAAAAAAAAAAAAAAAAAAAAA8WIAAAAAAAACx/AAAHwAQAAAADAjBHhQ98PLIEAC4BzZndACigCkxAiAJ2CA4ZJiIoOLA0dGEJAholQLIyC8QgMAOQAAAQAACAACAAACAAAQAAAAAAAAAAA==

> <PUBCHEM_IUPAC_OPENEYE_NAME>
1-(6-cyano-2-pyridyl)-3-[7-(trifluoromethyl)-4-quinolyl]urea

> <PUBCHEM_IUPAC_CAS_NAME>
1-(6-cyano-2-pyridinyl)-3-[7-(trifluoromethyl)-4-quinolinyl]urea

> <PUBCHEM_IUPAC_NAME_MARKUP>
1-(6-cyanopyridin-2-yl)-3-[7-(trifluoromethyl)quinolin-4-yl]urea

> <PUBCHEM_IUPAC_NAME>
1-(6-cyanopyridin-2-yl)-3-[7-(trifluoromethyl)quinolin-4-yl]urea

> <PUBCHEM_IUPAC_SYSTEMATIC_NAME>
1-(6-cyanopyridin-2-yl)-3-[7-(trifluoromethyl)quinolin-4-yl]urea

> <PUBCHEM_IUPAC_TRADITIONAL_NAME>
1-(6-cyano-2-pyridyl)-3-[7-(trifluoromethyl)-4-quinolyl]urea

> <PUBCHEM_IUPAC_INCHI>
InChI=1S/C17H10F3N5O/c18-17(19,20)10-4-5-12-13(6-7-22-14(12)8-10)24-16(26)25-15-3-1-2-11(9-21)23-15/h1-8H,(H2,22,23,24,25,26)

> <PUBCHEM_IUPAC_INCHIKEY>
YNUMBZPWLHDVEX-UHFFFAOYSA-N

> <PUBCHEM_XLOGP3_AA>
3

> <PUBCHEM_EXACT_MASS>
357.08374445

> <PUBCHEM_MOLECULAR_FORMULA>
C17H10F3N5O

> <PUBCHEM_MOLECULAR_WEIGHT>
357.29

> <PUBCHEM_SMILES>
C1=CC(=NC(=C1)NC(=O)NC2=C3C=CC(=CC3=NC=C2)C(F)(F)F)C#N

> <PUBCHEM_OPENEYE_CAN_SMILES>
C1=CC(=NC(=C1)NC(=O)NC2=C3C=CC(=CC3=NC=C2)C(F)(F)F)C#N

> <PUBCHEM_OPENEYE_ISO_SMILES>
C1=CC(=NC(=C1)NC(=O)NC2=C3C=CC(=CC3=NC=C2)C(F)(F)F)C#N

> <PUBCHEM_CACTVS_TPSA>
90.7

> <PUBCHEM_MONOISOTOPIC_WEIGHT>
357.08374445

> <PUBCHEM_TOTAL_CHARGE>
0

> <PUBCHEM_HEAVY_ATOM_COUNT>
26

> <PUBCHEM_ATOM_DEF_STEREO_COUNT>
0

> <PUBCHEM_ATOM_UDEF_STEREO_COUNT>
0

> <PUBCHEM_BOND_DEF_STEREO_COUNT>
0

> <PUBCHEM_BOND_UDEF_STEREO_COUNT>
0

> <PUBCHEM_ISOTOPIC_ATOM_COUNT>
0

> <PUBCHEM_COMPONENT_COUNT>
1

> <PUBCHEM_CACTVS_TAUTO_COUNT>
-1

> <PUBCHEM_COORDINATE_TYPE>
1
5
255

> <PUBCHEM_BONDANNOTATIONS>
10  11  8
10  12  8
10  14  8
11  15  8
12  17  8
13  15  8
13  16  8
14  16  8
17  19  8
21  22  8
22  23  8
23  25  8
24  25  8
6  11  8
6  19  8
8  21  8
8  24  8

$$$$
