10429593
  -OEChem-03202507122D

 49 51  0     0  0  0  0  0  0999 V2000
    7.4259    3.5556    0.0000 F   0  0  0  0  0  0  0  0  0  0  0  0
   10.7186    2.4794    0.0000 F   0  0  0  0  0  0  0  0  0  0  0  0
    2.8660   -2.6616    0.0000 O   0  0  0  0  0  0  0  0  0  0  0  0
    8.8081   -0.5784    0.0000 O   0  0  0  0  0  0  0  0  0  0  0  0
    4.3660   -1.7955    0.0000 N   0  0  0  0  0  0  0  0  0  0  0  0
    6.8511   -2.6002    0.0000 N   0  0  0  0  0  0  0  0  0  0  0  0
    7.4347   -1.7955    0.0000 N   0  0  0  0  0  0  0  0  0  0  0  0
    7.1618   -0.0403    0.0000 N   0  0  0  0  0  0  0  0  0  0  0  0
    4.9538   -2.6045    0.0000 C   0  0  0  0  0  0  0  0  0  0  0  0
    5.9049   -2.2955    0.0000 C   0  0  0  0  0  0  0  0  0  0  0  0
    4.9538   -0.9865    0.0000 C   0  0  0  0  0  0  0  0  0  0  0  0
    5.9049   -1.2955    0.0000 C   0  0  0  0  0  0  0  0  0  0  0  0
    4.1448   -3.1923    0.0000 C   0  0  0  0  0  0  0  0  0  0  0  0
    5.2628   -3.5556    0.0000 C   0  0  0  0  0  0  0  0  0  0  0  0
    3.3660   -1.7955    0.0000 C   0  0  0  0  0  0  0  0  0  0  0  0
    2.8660   -0.9295    0.0000 C   0  0  0  0  0  0  0  0  0  0  0  0
    6.8511   -0.9908    0.0000 C   0  0  0  0  0  0  0  0  0  0  0  0
    2.3660   -0.0635    0.0000 C   0  0  0  0  0  0  0  0  0  0  0  0
    2.0000   -1.4295    0.0000 C   0  0  0  0  0  0  0  0  0  0  0  0
    3.7320   -0.4295    0.0000 C   0  0  0  0  0  0  0  0  0  0  0  0
    8.1402    0.1659    0.0000 C   0  0  0  0  0  0  0  0  0  0  0  0
    8.4509    1.1165    0.0000 C   0  0  0  0  0  0  0  0  0  0  0  0
    9.4294    1.3227    0.0000 C   0  0  0  0  0  0  0  0  0  0  0  0
    7.7831    1.8608    0.0000 C   0  0  0  0  0  0  0  0  0  0  0  0
    8.0937    2.8113    0.0000 C   0  0  0  0  0  0  0  0  0  0  0  0
    9.7401    2.2732    0.0000 C   0  0  0  0  0  0  0  0  0  0  0  0
    9.0722    3.0175    0.0000 C   0  0  0  0  0  0  0  0  0  0  0  0
    5.2060   -0.4201    0.0000 H   0  0  0  0  0  0  0  0  0  0  0  0
    4.4169   -0.6765    0.0000 H   0  0  0  0  0  0  0  0  0  0  0  0
    3.7804   -2.6907    0.0000 H   0  0  0  0  0  0  0  0  0  0  0  0
    3.6432   -3.5568    0.0000 H   0  0  0  0  0  0  0  0  0  0  0  0
    4.5092   -3.6939    0.0000 H   0  0  0  0  0  0  0  0  0  0  0  0
    4.6732   -3.7472    0.0000 H   0  0  0  0  0  0  0  0  0  0  0  0
    5.4544   -4.1452    0.0000 H   0  0  0  0  0  0  0  0  0  0  0  0
    5.8525   -3.3640    0.0000 H   0  0  0  0  0  0  0  0  0  0  0  0
    7.0437   -3.1896    0.0000 H   0  0  0  0  0  0  0  0  0  0  0  0
    2.9030    0.2465    0.0000 H   0  0  0  0  0  0  0  0  0  0  0  0
    2.0560    0.4735    0.0000 H   0  0  0  0  0  0  0  0  0  0  0  0
    1.8291   -0.3735    0.0000 H   0  0  0  0  0  0  0  0  0  0  0  0
    1.6900   -0.8926    0.0000 H   0  0  0  0  0  0  0  0  0  0  0  0
    1.4631   -1.7395    0.0000 H   0  0  0  0  0  0  0  0  0  0  0  0
    2.3100   -1.9664    0.0000 H   0  0  0  0  0  0  0  0  0  0  0  0
    4.0420   -0.9664    0.0000 H   0  0  0  0  0  0  0  0  0  0  0  0
    4.2690   -0.1195    0.0000 H   0  0  0  0  0  0  0  0  0  0  0  0
    3.4220    0.1074    0.0000 H   0  0  0  0  0  0  0  0  0  0  0  0
    6.7477    0.4212    0.0000 H   0  0  0  0  0  0  0  0  0  0  0  0
    9.8435    0.8612    0.0000 H   0  0  0  0  0  0  0  0  0  0  0  0
    7.1764    1.7329    0.0000 H   0  0  0  0  0  0  0  0  0  0  0  0
    9.2648    3.6068    0.0000 H   0  0  0  0  0  0  0  0  0  0  0  0
  1 25  1  0  0  0  0
  2 26  1  0  0  0  0
  3 15  2  0  0  0  0
  4 21  2  0  0  0  0
  5  9  1  0  0  0  0
  5 11  1  0  0  0  0
  5 15  1  0  0  0  0
  6  7  1  0  0  0  0
  6 10  1  0  0  0  0
  6 36  1  0  0  0  0
  7 17  2  0  0  0  0
  8 17  1  0  0  0  0
  8 21  1  0  0  0  0
  8 46  1  0  0  0  0
  9 10  1  0  0  0  0
  9 13  1  0  0  0  0
  9 14  1  0  0  0  0
 10 12  2  0  0  0  0
 11 12  1  0  0  0  0
 11 28  1  0  0  0  0
 11 29  1  0  0  0  0
 12 17  1  0  0  0  0
 13 30  1  0  0  0  0
 13 31  1  0  0  0  0
 13 32  1  0  0  0  0
 14 33  1  0  0  0  0
 14 34  1  0  0  0  0
 14 35  1  0  0  0  0
 15 16  1  0  0  0  0
 16 18  1  0  0  0  0
 16 19  1  0  0  0  0
 16 20  1  0  0  0  0
 18 37  1  0  0  0  0
 18 38  1  0  0  0  0
 18 39  1  0  0  0  0
 19 40  1  0  0  0  0
 19 41  1  0  0  0  0
 19 42  1  0  0  0  0
 20 43  1  0  0  0  0
 20 44  1  0  0  0  0
 20 45  1  0  0  0  0
 21 22  1  0  0  0  0
 22 23  2  0  0  0  0
 22 24  1  0  0  0  0
 23 26  1  0  0  0  0
 23 47  1  0  0  0  0
 24 25  2  0  0  0  0
 24 48  1  0  0  0  0
 25 27  1  0  0  0  0
 26 27  2  0  0  0  0
 27 49  1  0  0  0  0
M  END
> <PUBCHEM_COMPOUND_CID>
10429593

> <PUBCHEM_COMPOUND_CANONICALIZED>
1

> <PUBCHEM_CACTVS_COMPLEXITY>
597

> <PUBCHEM_CACTVS_HBOND_ACCEPTOR>
5

> <PUBCHEM_CACTVS_HBOND_DONOR>
2

> <PUBCHEM_CACTVS_ROTATABLE_BOND>
3

> <PUBCHEM_CACTVS_SUBSKEYS>
AAADceB7sYAAAAAAAAAAAAAAAAAAAWLAAAAwAAAAAAAWAAABwAAAHwAYAAAADojBngwzsJPjAACqAydycACSBAIlAAAVuSEoRNiIYDLA3dGUpQhwjwLIyYcYiACOAAAAAAAAAAAAAAAAAAAAAAAAAAAAAA==

> <PUBCHEM_IUPAC_OPENEYE_NAME>
N-[5-(2,2-dimethylpropanoyl)-6,6-dimethyl-1,4-dihydropyrrolo[3,4-c]pyrazol-3-yl]-3,5-difluoro-benzamide

> <PUBCHEM_IUPAC_CAS_NAME>
N-[5-(2,2-dimethyl-1-oxopropyl)-6,6-dimethyl-1,4-dihydropyrrolo[3,4-c]pyrazol-3-yl]-3,5-difluorobenzamide

> <PUBCHEM_IUPAC_NAME_MARKUP>
<I>N</I>-[5-(2,2-dimethylpropanoyl)-6,6-dimethyl-1,4-dihydropyrrolo[3,4-c]pyrazol-3-yl]-3,5-difluorobenzamide

> <PUBCHEM_IUPAC_NAME>
N-[5-(2,2-dimethylpropanoyl)-6,6-dimethyl-1,4-dihydropyrrolo[3,4-c]pyrazol-3-yl]-3,5-difluorobenzamide

> <PUBCHEM_IUPAC_SYSTEMATIC_NAME>
N-[5-(2,2-dimethylpropanoyl)-6,6-dimethyl-1,4-dihydropyrrolo[3,4-c]pyrazol-3-yl]-3,5-bis(fluoranyl)benzamide

> <PUBCHEM_IUPAC_TRADITIONAL_NAME>
N-(6,6-dimethyl-5-pivaloyl-1,4-dihydropyrrolo[3,4-c]pyrazol-3-yl)-3,5-difluoro-benzamide

> <PUBCHEM_IUPAC_INCHI>
InChI=1S/C19H22F2N4O2/c1-18(2,3)17(27)25-9-13-14(19(25,4)5)23-24-15(13)22-16(26)10-6-11(20)8-12(21)7-10/h6-8H,9H2,1-5H3,(H2,22,23,24,26)

> <PUBCHEM_IUPAC_INCHIKEY>
QXBKFUBBGBWPCJ-UHFFFAOYSA-N

> <PUBCHEM_XLOGP3_AA>
2.5

> <PUBCHEM_EXACT_MASS>
376.17108228

> <PUBCHEM_MOLECULAR_FORMULA>
C19H22F2N4O2

> <PUBCHEM_MOLECULAR_WEIGHT>
376.4

> <PUBCHEM_SMILES>
CC1(C2=C(CN1C(=O)C(C)(C)C)C(=NN2)NC(=O)C3=CC(=CC(=C3)F)F)C

> <PUBCHEM_OPENEYE_CAN_SMILES>
CC1(C2=C(CN1C(=O)C(C)(C)C)C(=NN2)NC(=O)C3=CC(=CC(=C3)F)F)C

> <PUBCHEM_OPENEYE_ISO_SMILES>
CC1(C2=C(CN1C(=O)C(C)(C)C)C(=NN2)NC(=O)C3=CC(=CC(=C3)F)F)C

> <PUBCHEM_CACTVS_TPSA>
78.1

> <PUBCHEM_MONOISOTOPIC_WEIGHT>
376.17108228

> <PUBCHEM_TOTAL_CHARGE>
0

> <PUBCHEM_HEAVY_ATOM_COUNT>
27

> <PUBCHEM_ATOM_DEF_STEREO_COUNT>
0

> <PUBCHEM_ATOM_UDEF_STEREO_COUNT>
0

> <PUBCHEM_BOND_DEF_STEREO_COUNT>
0

> <PUBCHEM_BOND_UDEF_STEREO_COUNT>
0

> <PUBCHEM_ISOTOPIC_ATOM_COUNT>
0

> <PUBCHEM_COMPONENT_COUNT>
1

> <PUBCHEM_CACTVS_TAUTO_COUNT>
-1

> <PUBCHEM_COORDINATE_TYPE>
1
5
255

> <PUBCHEM_BONDANNOTATIONS>
10  12  8
12  17  8
22  23  8
22  24  8
23  26  8
24  25  8
25  27  8
26  27  8
6  10  8
6  7  8
7  17  8

$$$$
