24905343
  -OEChem-03192523542D

 42 44  0     0  0  0  0  0  0999 V2000
    7.2566    1.6924    0.0000 O   0  0  0  0  0  0  0  0  0  0  0  0
    5.9209    3.1810    0.0000 O   0  0  0  0  0  0  0  0  0  0  0  0
    4.6783   -2.2305    0.0000 N   0  0  0  0  0  0  0  0  0  0  0  0
    5.2619   -1.4258    0.0000 N   0  0  0  0  0  0  0  0  0  0  0  0
    2.8660   -2.4258    0.0000 N   0  0  0  0  0  0  0  0  0  0  0  0
    2.0000   -0.9258    0.0000 N   0  0  0  0  0  0  0  0  0  0  0  0
    2.8660    0.5742    0.0000 N   0  0  0  0  0  0  0  0  0  0  0  0
    4.9889   -3.1810    0.0000 C   0  0  0  0  0  0  0  0  0  0  0  0
    3.7320   -1.9258    0.0000 C   0  0  0  0  0  0  0  0  0  0  0  0
    3.7320   -0.9258    0.0000 C   0  0  0  0  0  0  0  0  0  0  0  0
    4.6783   -0.6210    0.0000 C   0  0  0  0  0  0  0  0  0  0  0  0
    4.9889    0.3295    0.0000 C   0  0  0  0  0  0  0  0  0  0  0  0
    5.9674   -3.3872    0.0000 C   0  0  0  0  0  0  0  0  0  0  0  0
    4.3211   -3.9253    0.0000 C   0  0  0  0  0  0  0  0  0  0  0  0
    2.8660   -0.4258    0.0000 C   0  0  0  0  0  0  0  0  0  0  0  0
    5.9674    0.5357    0.0000 C   0  0  0  0  0  0  0  0  0  0  0  0
    4.3211    1.0738    0.0000 C   0  0  0  0  0  0  0  0  0  0  0  0
    6.2781    1.4862    0.0000 C   0  0  0  0  0  0  0  0  0  0  0  0
    4.6318    2.0243    0.0000 C   0  0  0  0  0  0  0  0  0  0  0  0
    2.0000   -1.9258    0.0000 C   0  0  0  0  0  0  0  0  0  0  0  0
    5.6103    2.2305    0.0000 C   0  0  0  0  0  0  0  0  0  0  0  0
    7.9244    0.9481    0.0000 C   0  0  0  0  0  0  0  0  0  0  0  0
    5.2531    3.9253    0.0000 C   0  0  0  0  0  0  0  0  0  0  0  0
    5.1815   -3.7704    0.0000 H   0  0  0  0  0  0  0  0  0  0  0  0
    5.8396   -3.9939    0.0000 H   0  0  0  0  0  0  0  0  0  0  0  0
    6.5741   -3.5151    0.0000 H   0  0  0  0  0  0  0  0  0  0  0  0
    6.0953   -2.7806    0.0000 H   0  0  0  0  0  0  0  0  0  0  0  0
    3.8596   -3.5113    0.0000 H   0  0  0  0  0  0  0  0  0  0  0  0
    3.9070   -4.3868    0.0000 H   0  0  0  0  0  0  0  0  0  0  0  0
    4.7826   -4.3394    0.0000 H   0  0  0  0  0  0  0  0  0  0  0  0
    6.3815    0.0742    0.0000 H   0  0  0  0  0  0  0  0  0  0  0  0
    3.7144    0.9459    0.0000 H   0  0  0  0  0  0  0  0  0  0  0  0
    4.2177    2.4858    0.0000 H   0  0  0  0  0  0  0  0  0  0  0  0
    1.4631   -2.2358    0.0000 H   0  0  0  0  0  0  0  0  0  0  0  0
    2.3291    0.8842    0.0000 H   0  0  0  0  0  0  0  0  0  0  0  0
    3.4030    0.8842    0.0000 H   0  0  0  0  0  0  0  0  0  0  0  0
    7.4630    0.5341    0.0000 H   0  0  0  0  0  0  0  0  0  0  0  0
    8.3385    0.4867    0.0000 H   0  0  0  0  0  0  0  0  0  0  0  0
    8.3859    1.3622    0.0000 H   0  0  0  0  0  0  0  0  0  0  0  0
    5.7145    4.3394    0.0000 H   0  0  0  0  0  0  0  0  0  0  0  0
    4.8390    4.3868    0.0000 H   0  0  0  0  0  0  0  0  0  0  0  0
    4.7916    3.5113    0.0000 H   0  0  0  0  0  0  0  0  0  0  0  0
  1 18  1  0  0  0  0
  1 22  1  0  0  0  0
  2 21  1  0  0  0  0
  2 23  1  0  0  0  0
  3  4  1  0  0  0  0
  3  8  1  0  0  0  0
  3  9  1  0  0  0  0
  4 11  2  0  0  0  0
  5  9  2  0  0  0  0
  5 20  1  0  0  0  0
  6 15  1  0  0  0  0
  6 20  2  0  0  0  0
  7 15  1  0  0  0  0
  7 35  1  0  0  0  0
  7 36  1  0  0  0  0
  8 13  1  0  0  0  0
  8 14  1  0  0  0  0
  8 24  1  0  0  0  0
  9 10  1  0  0  0  0
 10 11  1  0  0  0  0
 10 15  2  0  0  0  0
 11 12  1  0  0  0  0
 12 16  2  0  0  0  0
 12 17  1  0  0  0  0
 13 25  1  0  0  0  0
 13 26  1  0  0  0  0
 13 27  1  0  0  0  0
 14 28  1  0  0  0  0
 14 29  1  0  0  0  0
 14 30  1  0  0  0  0
 16 18  1  0  0  0  0
 16 31  1  0  0  0  0
 17 19  2  0  0  0  0
 17 32  1  0  0  0  0
 18 21  2  0  0  0  0
 19 21  1  0  0  0  0
 19 33  1  0  0  0  0
 20 34  1  0  0  0  0
 22 37  1  0  0  0  0
 22 38  1  0  0  0  0
 22 39  1  0  0  0  0
 23 40  1  0  0  0  0
 23 41  1  0  0  0  0
 23 42  1  0  0  0  0
M  END
> <PUBCHEM_COMPOUND_CID>
24905343

> <PUBCHEM_COMPOUND_CANONICALIZED>
1

> <PUBCHEM_CACTVS_COMPLEXITY>
397

> <PUBCHEM_CACTVS_HBOND_ACCEPTOR>
6

> <PUBCHEM_CACTVS_HBOND_DONOR>
1

> <PUBCHEM_CACTVS_ROTATABLE_BOND>
4

> <PUBCHEM_CACTVS_SUBSKEYS>
AAADceB7sAAAAAAAAAAAAAAAAAAAAWAAAAA8QAAAAAAAAFgB/AAAHgAYAAAADCzBnwY3tt5IFACiAyZjZACSjCsxoKAd2CAuzJiNLqLE+duEtCpsyBPK6Cew0PEOIAABAAAAQABAAAIAAACAAAAAAAAAAA==

> <PUBCHEM_IUPAC_OPENEYE_NAME>
3-(3,4-dimethoxyphenyl)-1-isopropyl-pyrazolo[3,4-d]pyrimidin-4-amine

> <PUBCHEM_IUPAC_CAS_NAME>
3-(3,4-dimethoxyphenyl)-1-propan-2-yl-4-pyrazolo[3,4-d]pyrimidinamine

> <PUBCHEM_IUPAC_NAME_MARKUP>
3-(3,4-dimethoxyphenyl)-1-propan-2-ylpyrazolo[3,4-d]pyrimidin-4-amine

> <PUBCHEM_IUPAC_NAME>
3-(3,4-dimethoxyphenyl)-1-propan-2-ylpyrazolo[3,4-d]pyrimidin-4-amine

> <PUBCHEM_IUPAC_SYSTEMATIC_NAME>
3-(3,4-dimethoxyphenyl)-1-propan-2-yl-pyrazolo[3,4-d]pyrimidin-4-amine

> <PUBCHEM_IUPAC_TRADITIONAL_NAME>
[3-(3,4-dimethoxyphenyl)-1-isopropyl-pyrazolo[3,4-d]pyrimidin-4-yl]amine

> <PUBCHEM_IUPAC_INCHI>
InChI=1S/C16H19N5O2/c1-9(2)21-16-13(15(17)18-8-19-16)14(20-21)10-5-6-11(22-3)12(7-10)23-4/h5-9H,1-4H3,(H2,17,18,19)

> <PUBCHEM_IUPAC_INCHIKEY>
CJFWNLXLAAHQJY-UHFFFAOYSA-N

> <PUBCHEM_XLOGP3_AA>
2.1

> <PUBCHEM_EXACT_MASS>
313.15387487

> <PUBCHEM_MOLECULAR_FORMULA>
C16H19N5O2

> <PUBCHEM_MOLECULAR_WEIGHT>
313.35

> <PUBCHEM_SMILES>
CC(C)N1C2=NC=NC(=C2C(=N1)C3=CC(=C(C=C3)OC)OC)N

> <PUBCHEM_OPENEYE_CAN_SMILES>
CC(C)N1C2=NC=NC(=C2C(=N1)C3=CC(=C(C=C3)OC)OC)N

> <PUBCHEM_OPENEYE_ISO_SMILES>
CC(C)N1C2=NC=NC(=C2C(=N1)C3=CC(=C(C=C3)OC)OC)N

> <PUBCHEM_CACTVS_TPSA>
88.1

> <PUBCHEM_MONOISOTOPIC_WEIGHT>
313.15387487

> <PUBCHEM_TOTAL_CHARGE>
0

> <PUBCHEM_HEAVY_ATOM_COUNT>
23

> <PUBCHEM_ATOM_DEF_STEREO_COUNT>
0

> <PUBCHEM_ATOM_UDEF_STEREO_COUNT>
0

> <PUBCHEM_BOND_DEF_STEREO_COUNT>
0

> <PUBCHEM_BOND_UDEF_STEREO_COUNT>
0

> <PUBCHEM_ISOTOPIC_ATOM_COUNT>
0

> <PUBCHEM_COMPONENT_COUNT>
1

> <PUBCHEM_CACTVS_TAUTO_COUNT>
-1

> <PUBCHEM_COORDINATE_TYPE>
1
5
255

> <PUBCHEM_BONDANNOTATIONS>
10  11  8
10  15  8
12  16  8
12  17  8
16  18  8
17  19  8
18  21  8
19  21  8
3  4  8
3  9  8
4  11  8
5  20  8
5  9  8
6  15  8
6  20  8
9  10  8

$$$$
