49830459
  -OEChem-03202504212D

 57 61  0     0  0  0  0  0  0999 V2000
   12.2486    0.3534    0.0000 O   0  0  0  0  0  0  0  0  0  0  0  0
    5.1646    0.4726    0.0000 N   0  0  0  0  0  0  0  0  0  0  0  0
   10.2916   -1.6685    0.0000 N   0  0  0  0  0  0  0  0  0  0  0  0
    6.6428    1.1308    0.0000 N   0  0  0  0  0  0  0  0  0  0  0  0
    5.6646    1.3387    0.0000 N   0  0  0  0  0  0  0  0  0  0  0  0
   10.6022    0.8915    0.0000 N   0  0  0  0  0  0  0  0  0  0  0  0
   10.8752   -0.8638    0.0000 N   0  0  0  0  0  0  0  0  0  0  0  0
    5.8338   -0.2705    0.0000 C   0  0  0  0  0  0  0  0  0  0  0  0
    7.6133   -0.3638    0.0000 C   0  0  0  0  0  0  0  0  0  0  0  0
    6.7473    0.1362    0.0000 C   0  0  0  0  0  0  0  0  0  0  0  0
    9.3454   -0.3638    0.0000 C   0  0  0  0  0  0  0  0  0  0  0  0
    9.3454   -1.3638    0.0000 C   0  0  0  0  0  0  0  0  0  0  0  0
    8.4793    0.1362    0.0000 C   0  0  0  0  0  0  0  0  0  0  0  0
    4.1701    0.3681    0.0000 C   0  0  0  0  0  0  0  0  0  0  0  0
    5.6258   -1.2487    0.0000 C   0  0  0  0  0  0  0  0  0  0  0  0
   10.2916   -0.0590    0.0000 C   0  0  0  0  0  0  0  0  0  0  0  0
    7.6133   -1.3638    0.0000 C   0  0  0  0  0  0  0  0  0  0  0  0
    8.4793   -1.8638    0.0000 C   0  0  0  0  0  0  0  0  0  0  0  0
    3.5823    1.1771    0.0000 C   0  0  0  0  0  0  0  0  0  0  0  0
    4.6748   -1.5577    0.0000 C   0  0  0  0  0  0  0  0  0  0  0  0
    6.3690   -1.9178    0.0000 C   0  0  0  0  0  0  0  0  0  0  0  0
   11.8914    2.0482    0.0000 C   0  0  0  0  0  0  0  0  0  0  0  0
   11.5808    1.0977    0.0000 C   0  0  0  0  0  0  0  0  0  0  0  0
    2.5878    1.0726    0.0000 C   0  0  0  0  0  0  0  0  0  0  0  0
    3.9890    2.0907    0.0000 C   0  0  0  0  0  0  0  0  0  0  0  0
   12.8699    2.2544    0.0000 C   0  0  0  0  0  0  0  0  0  0  0  0
    4.4669   -2.5358    0.0000 C   0  0  0  0  0  0  0  0  0  0  0  0
    6.1611   -2.8959    0.0000 C   0  0  0  0  0  0  0  0  0  0  0  0
    5.2100   -3.2050    0.0000 C   0  0  0  0  0  0  0  0  0  0  0  0
    2.0000    1.8816    0.0000 C   0  0  0  0  0  0  0  0  0  0  0  0
    3.4013    2.8997    0.0000 C   0  0  0  0  0  0  0  0  0  0  0  0
    2.4067    2.7952    0.0000 C   0  0  0  0  0  0  0  0  0  0  0  0
   13.1806    3.2050    0.0000 C   0  0  0  0  0  0  0  0  0  0  0  0
    8.4793    0.7562    0.0000 H   0  0  0  0  0  0  0  0  0  0  0  0
    3.6128    0.0963    0.0000 H   0  0  0  0  0  0  0  0  0  0  0  0
    4.3410   -0.2279    0.0000 H   0  0  0  0  0  0  0  0  0  0  0  0
    7.0764   -1.6738    0.0000 H   0  0  0  0  0  0  0  0  0  0  0  0
    8.4793   -2.4838    0.0000 H   0  0  0  0  0  0  0  0  0  0  0  0
   10.4842   -2.2578    0.0000 H   0  0  0  0  0  0  0  0  0  0  0  0
   10.1882    1.3529    0.0000 H   0  0  0  0  0  0  0  0  0  0  0  0
    4.2140   -1.1428    0.0000 H   0  0  0  0  0  0  0  0  0  0  0  0
    6.9586   -1.7262    0.0000 H   0  0  0  0  0  0  0  0  0  0  0  0
   11.8709    2.6679    0.0000 H   0  0  0  0  0  0  0  0  0  0  0  0
   11.2776    2.1356    0.0000 H   0  0  0  0  0  0  0  0  0  0  0  0
    2.3356    0.5062    0.0000 H   0  0  0  0  0  0  0  0  0  0  0  0
    4.6056    2.1555    0.0000 H   0  0  0  0  0  0  0  0  0  0  0  0
   12.8905    1.6348    0.0000 H   0  0  0  0  0  0  0  0  0  0  0  0
   13.4837    2.1671    0.0000 H   0  0  0  0  0  0  0  0  0  0  0  0
    3.8772   -2.7274    0.0000 H   0  0  0  0  0  0  0  0  0  0  0  0
    6.6218   -3.3108    0.0000 H   0  0  0  0  0  0  0  0  0  0  0  0
    5.0811   -3.8114    0.0000 H   0  0  0  0  0  0  0  0  0  0  0  0
    1.3834    1.8168    0.0000 H   0  0  0  0  0  0  0  0  0  0  0  0
    3.6534    3.4661    0.0000 H   0  0  0  0  0  0  0  0  0  0  0  0
    2.0423    3.2968    0.0000 H   0  0  0  0  0  0  0  0  0  0  0  0
   13.7699    3.0123    0.0000 H   0  0  0  0  0  0  0  0  0  0  0  0
   13.3732    3.7943    0.0000 H   0  0  0  0  0  0  0  0  0  0  0  0
   12.5913    3.3976    0.0000 H   0  0  0  0  0  0  0  0  0  0  0  0
  1 23  2  0  0  0  0
  2  5  1  0  0  0  0
  2  8  1  0  0  0  0
  2 14  1  0  0  0  0
  3  7  1  0  0  0  0
  3 12  1  0  0  0  0
  3 39  1  0  0  0  0
  4  5  2  0  0  0  0
  4 10  1  0  0  0  0
  6 16  1  0  0  0  0
  6 23  1  0  0  0  0
  6 40  1  0  0  0  0
  7 16  2  0  0  0  0
  8 10  2  0  0  0  0
  8 15  1  0  0  0  0
  9 10  1  0  0  0  0
  9 13  2  0  0  0  0
  9 17  1  0  0  0  0
 11 12  2  0  0  0  0
 11 13  1  0  0  0  0
 11 16  1  0  0  0  0
 12 18  1  0  0  0  0
 13 34  1  0  0  0  0
 14 19  1  0  0  0  0
 14 35  1  0  0  0  0
 14 36  1  0  0  0  0
 15 20  2  0  0  0  0
 15 21  1  0  0  0  0
 17 18  2  0  0  0  0
 17 37  1  0  0  0  0
 18 38  1  0  0  0  0
 19 24  2  0  0  0  0
 19 25  1  0  0  0  0
 20 27  1  0  0  0  0
 20 41  1  0  0  0  0
 21 28  2  0  0  0  0
 21 42  1  0  0  0  0
 22 23  1  0  0  0  0
 22 26  1  0  0  0  0
 22 43  1  0  0  0  0
 22 44  1  0  0  0  0
 24 30  1  0  0  0  0
 24 45  1  0  0  0  0
 25 31  2  0  0  0  0
 25 46  1  0  0  0  0
 26 33  1  0  0  0  0
 26 47  1  0  0  0  0
 26 48  1  0  0  0  0
 27 29  2  0  0  0  0
 27 49  1  0  0  0  0
 28 29  1  0  0  0  0
 28 50  1  0  0  0  0
 29 51  1  0  0  0  0
 30 32  2  0  0  0  0
 30 52  1  0  0  0  0
 31 32  1  0  0  0  0
 31 53  1  0  0  0  0
 32 54  1  0  0  0  0
 33 55  1  0  0  0  0
 33 56  1  0  0  0  0
 33 57  1  0  0  0  0
M  END
> <PUBCHEM_COMPOUND_CID>
49830459

> <PUBCHEM_COMPOUND_CANONICALIZED>
1

> <PUBCHEM_CACTVS_COMPLEXITY>
634

> <PUBCHEM_CACTVS_HBOND_ACCEPTOR>
4

> <PUBCHEM_CACTVS_HBOND_DONOR>
2

> <PUBCHEM_CACTVS_ROTATABLE_BOND>
7

> <PUBCHEM_CACTVS_SUBSKEYS>
AAADceB7oAAAAAAAAAAAAAAAAAAAAWLAAAAwYMAAAAAAAFgB/AAAHgAYAAAADAjBngQz8PLrAACqAydydACSBAYhkgAd+SE4dJiIYLLA2dGUpAhwnQLIyAcQgMAOCAACAAACAAAQAAQAAAQAAAAAAAAAAA==

> <PUBCHEM_IUPAC_OPENEYE_NAME>
N-[5-(1-benzyl-5-phenyl-triazol-4-yl)-1H-indazol-3-yl]butanamide

> <PUBCHEM_IUPAC_CAS_NAME>
N-[5-[5-phenyl-1-(phenylmethyl)-4-triazolyl]-1H-indazol-3-yl]butanamide

> <PUBCHEM_IUPAC_NAME_MARKUP>
<I>N</I>-[5-(1-benzyl-5-phenyltriazol-4-yl)-1<I>H</I>-indazol-3-yl]butanamide

> <PUBCHEM_IUPAC_NAME>
N-[5-(1-benzyl-5-phenyltriazol-4-yl)-1H-indazol-3-yl]butanamide

> <PUBCHEM_IUPAC_SYSTEMATIC_NAME>
N-[5-[5-phenyl-1-(phenylmethyl)-1,2,3-triazol-4-yl]-1H-indazol-3-yl]butanamide

> <PUBCHEM_IUPAC_TRADITIONAL_NAME>
N-[5-(1-benzyl-5-phenyl-triazol-4-yl)-1H-indazol-3-yl]butyramide

> <PUBCHEM_IUPAC_INCHI>
InChI=1S/C26H24N6O/c1-2-9-23(33)27-26-21-16-20(14-15-22(21)28-30-26)24-25(19-12-7-4-8-13-19)32(31-29-24)17-18-10-5-3-6-11-18/h3-8,10-16H,2,9,17H2,1H3,(H2,27,28,30,33)

> <PUBCHEM_IUPAC_INCHIKEY>
ZRQXCQXWTLVASO-UHFFFAOYSA-N

> <PUBCHEM_XLOGP3_AA>
4.6

> <PUBCHEM_EXACT_MASS>
436.20115941

> <PUBCHEM_MOLECULAR_FORMULA>
C26H24N6O

> <PUBCHEM_MOLECULAR_WEIGHT>
436.5

> <PUBCHEM_SMILES>
CCCC(=O)NC1=NNC2=C1C=C(C=C2)C3=C(N(N=N3)CC4=CC=CC=C4)C5=CC=CC=C5

> <PUBCHEM_OPENEYE_CAN_SMILES>
CCCC(=O)NC1=NNC2=C1C=C(C=C2)C3=C(N(N=N3)CC4=CC=CC=C4)C5=CC=CC=C5

> <PUBCHEM_OPENEYE_ISO_SMILES>
CCCC(=O)NC1=NNC2=C1C=C(C=C2)C3=C(N(N=N3)CC4=CC=CC=C4)C5=CC=CC=C5

> <PUBCHEM_CACTVS_TPSA>
88.5

> <PUBCHEM_MONOISOTOPIC_WEIGHT>
436.20115941

> <PUBCHEM_TOTAL_CHARGE>
0

> <PUBCHEM_HEAVY_ATOM_COUNT>
33

> <PUBCHEM_ATOM_DEF_STEREO_COUNT>
0

> <PUBCHEM_ATOM_UDEF_STEREO_COUNT>
0

> <PUBCHEM_BOND_DEF_STEREO_COUNT>
0

> <PUBCHEM_BOND_UDEF_STEREO_COUNT>
0

> <PUBCHEM_ISOTOPIC_ATOM_COUNT>
0

> <PUBCHEM_COMPONENT_COUNT>
1

> <PUBCHEM_CACTVS_TAUTO_COUNT>
-1

> <PUBCHEM_COORDINATE_TYPE>
1
5
255

> <PUBCHEM_BONDANNOTATIONS>
11  12  8
11  13  8
11  16  8
12  18  8
15  20  8
15  21  8
17  18  8
19  24  8
19  25  8
2  5  8
2  8  8
20  27  8
21  28  8
24  30  8
25  31  8
27  29  8
28  29  8
3  12  8
3  7  8
30  32  8
31  32  8
4  10  8
4  5  8
7  16  8
8  10  8
9  13  8
9  17  8

$$$$
