49830834
  -OEChem-03202502572D

 37 39  0     0  0  0  0  0  0999 V2000
    2.8660   -0.7984    0.0000 S   0  0  0  0  0  0  0  0  0  0  0  0
    2.3660   -1.6644    0.0000 O   0  0  0  0  0  0  0  0  0  0  0  0
    3.3660    0.0677    0.0000 O   0  0  0  0  0  0  0  0  0  0  0  0
    7.1962    0.7016    0.0000 N   0  0  0  0  0  0  0  0  0  0  0  0
   10.7404   -1.1031    0.0000 N   0  0  0  0  0  0  0  0  0  0  0  0
    3.7320   -1.2984    0.0000 N   0  0  0  0  0  0  0  0  0  0  0  0
   11.3241   -0.2984    0.0000 N   0  0  0  0  0  0  0  0  0  0  0  0
   11.0511    1.4569    0.0000 N   0  0  0  0  0  0  0  0  0  0  0  0
    9.7942    0.2016    0.0000 C   0  0  0  0  0  0  0  0  0  0  0  0
    8.0622    0.2016    0.0000 C   0  0  0  0  0  0  0  0  0  0  0  0
    9.7942   -0.7984    0.0000 C   0  0  0  0  0  0  0  0  0  0  0  0
    8.9282    0.7016    0.0000 C   0  0  0  0  0  0  0  0  0  0  0  0
    6.3301    0.2016    0.0000 C   0  0  0  0  0  0  0  0  0  0  0  0
    8.0622   -0.7984    0.0000 C   0  0  0  0  0  0  0  0  0  0  0  0
    8.9282   -1.2984    0.0000 C   0  0  0  0  0  0  0  0  0  0  0  0
   10.7404    0.5064    0.0000 C   0  0  0  0  0  0  0  0  0  0  0  0
    4.5981   -0.7984    0.0000 C   0  0  0  0  0  0  0  0  0  0  0  0
    6.3301   -0.7984    0.0000 C   0  0  0  0  0  0  0  0  0  0  0  0
    5.4641    0.7016    0.0000 C   0  0  0  0  0  0  0  0  0  0  0  0
    5.4641   -1.2984    0.0000 C   0  0  0  0  0  0  0  0  0  0  0  0
    4.5981    0.2016    0.0000 C   0  0  0  0  0  0  0  0  0  0  0  0
    2.0000   -0.2984    0.0000 C   0  0  0  0  0  0  0  0  0  0  0  0
    8.9282    1.3216    0.0000 H   0  0  0  0  0  0  0  0  0  0  0  0
    7.1962    1.3216    0.0000 H   0  0  0  0  0  0  0  0  0  0  0  0
    7.5252   -1.1084    0.0000 H   0  0  0  0  0  0  0  0  0  0  0  0
    8.9282   -1.9184    0.0000 H   0  0  0  0  0  0  0  0  0  0  0  0
   10.9331   -1.6924    0.0000 H   0  0  0  0  0  0  0  0  0  0  0  0
    6.8671   -1.1084    0.0000 H   0  0  0  0  0  0  0  0  0  0  0  0
    5.4641    1.3216    0.0000 H   0  0  0  0  0  0  0  0  0  0  0  0
    5.4641   -1.9184    0.0000 H   0  0  0  0  0  0  0  0  0  0  0  0
    4.0611    0.5116    0.0000 H   0  0  0  0  0  0  0  0  0  0  0  0
    3.7320   -1.9184    0.0000 H   0  0  0  0  0  0  0  0  0  0  0  0
    2.3100    0.2386    0.0000 H   0  0  0  0  0  0  0  0  0  0  0  0
    1.4631    0.0116    0.0000 H   0  0  0  0  0  0  0  0  0  0  0  0
    1.6900   -0.8353    0.0000 H   0  0  0  0  0  0  0  0  0  0  0  0
   11.6578    1.5848    0.0000 H   0  0  0  0  0  0  0  0  0  0  0  0
   10.6370    1.9184    0.0000 H   0  0  0  0  0  0  0  0  0  0  0  0
  1  2  2  0  0  0  0
  1  3  2  0  0  0  0
  1  6  1  0  0  0  0
  1 22  1  0  0  0  0
  4 10  1  0  0  0  0
  4 13  1  0  0  0  0
  4 24  1  0  0  0  0
  5  7  1  0  0  0  0
  5 11  1  0  0  0  0
  5 27  1  0  0  0  0
  6 17  1  0  0  0  0
  6 32  1  0  0  0  0
  7 16  2  0  0  0  0
  8 16  1  0  0  0  0
  8 36  1  0  0  0  0
  8 37  1  0  0  0  0
  9 11  2  0  0  0  0
  9 12  1  0  0  0  0
  9 16  1  0  0  0  0
 10 12  2  0  0  0  0
 10 14  1  0  0  0  0
 11 15  1  0  0  0  0
 12 23  1  0  0  0  0
 13 18  2  0  0  0  0
 13 19  1  0  0  0  0
 14 15  2  0  0  0  0
 14 25  1  0  0  0  0
 15 26  1  0  0  0  0
 17 20  2  0  0  0  0
 17 21  1  0  0  0  0
 18 20  1  0  0  0  0
 18 28  1  0  0  0  0
 19 21  2  0  0  0  0
 19 29  1  0  0  0  0
 20 30  1  0  0  0  0
 21 31  1  0  0  0  0
 22 33  1  0  0  0  0
 22 34  1  0  0  0  0
 22 35  1  0  0  0  0
M  END
> <PUBCHEM_COMPOUND_CID>
49830834

> <PUBCHEM_COMPOUND_CANONICALIZED>
1

> <PUBCHEM_CACTVS_COMPLEXITY>
472

> <PUBCHEM_CACTVS_HBOND_ACCEPTOR>
6

> <PUBCHEM_CACTVS_HBOND_DONOR>
4

> <PUBCHEM_CACTVS_ROTATABLE_BOND>
4

> <PUBCHEM_CACTVS_SUBSKEYS>
AAADccBzsABAAAAAAAAAAAAAAAAAAWAAAAAwYAAAAAAAAFgB9AAAHAQYQAAADAiBHgCz8PLjAAKiAyZiYHCSBAIhAgAcuSAwZJgIIOLA0dGEpAhwmADIyAcQgAAOAACAQAACAAAAAQCAAAQAAAAAAAAAAA==

> <PUBCHEM_IUPAC_OPENEYE_NAME>
N-[4-[(3-amino-1H-indazol-5-yl)amino]phenyl]methanesulfonamide

> <PUBCHEM_IUPAC_CAS_NAME>
N-[4-[(3-amino-1H-indazol-5-yl)amino]phenyl]methanesulfonamide

> <PUBCHEM_IUPAC_NAME_MARKUP>
<I>N</I>-[4-[(3-amino-1<I>H</I>-indazol-5-yl)amino]phenyl]methanesulfonamide

> <PUBCHEM_IUPAC_NAME>
N-[4-[(3-amino-1H-indazol-5-yl)amino]phenyl]methanesulfonamide

> <PUBCHEM_IUPAC_SYSTEMATIC_NAME>
N-[4-[(3-azanyl-1H-indazol-5-yl)amino]phenyl]methanesulfonamide

> <PUBCHEM_IUPAC_TRADITIONAL_NAME>
N-[4-[(3-amino-1H-indazol-5-yl)amino]phenyl]methanesulfonamide

> <PUBCHEM_IUPAC_INCHI>
InChI=1S/C14H15N5O2S/c1-22(20,21)19-10-4-2-9(3-5-10)16-11-6-7-13-12(8-11)14(15)18-17-13/h2-8,16,19H,1H3,(H3,15,17,18)

> <PUBCHEM_IUPAC_INCHIKEY>
YZHOOLPUTYUPEQ-UHFFFAOYSA-N

> <PUBCHEM_XLOGP3_AA>
1.7

> <PUBCHEM_EXACT_MASS>
317.09464591

> <PUBCHEM_MOLECULAR_FORMULA>
C14H15N5O2S

> <PUBCHEM_MOLECULAR_WEIGHT>
317.37

> <PUBCHEM_SMILES>
CS(=O)(=O)NC1=CC=C(C=C1)NC2=CC3=C(C=C2)NN=C3N

> <PUBCHEM_OPENEYE_CAN_SMILES>
CS(=O)(=O)NC1=CC=C(C=C1)NC2=CC3=C(C=C2)NN=C3N

> <PUBCHEM_OPENEYE_ISO_SMILES>
CS(=O)(=O)NC1=CC=C(C=C1)NC2=CC3=C(C=C2)NN=C3N

> <PUBCHEM_CACTVS_TPSA>
121

> <PUBCHEM_MONOISOTOPIC_WEIGHT>
317.09464591

> <PUBCHEM_TOTAL_CHARGE>
0

> <PUBCHEM_HEAVY_ATOM_COUNT>
22

> <PUBCHEM_ATOM_DEF_STEREO_COUNT>
0

> <PUBCHEM_ATOM_UDEF_STEREO_COUNT>
0

> <PUBCHEM_BOND_DEF_STEREO_COUNT>
0

> <PUBCHEM_BOND_UDEF_STEREO_COUNT>
0

> <PUBCHEM_ISOTOPIC_ATOM_COUNT>
0

> <PUBCHEM_COMPONENT_COUNT>
1

> <PUBCHEM_CACTVS_TAUTO_COUNT>
-1

> <PUBCHEM_COORDINATE_TYPE>
1
5
255

> <PUBCHEM_BONDANNOTATIONS>
10  12  8
10  14  8
11  15  8
13  18  8
13  19  8
14  15  8
17  20  8
17  21  8
18  20  8
19  21  8
5  11  8
5  7  8
7  16  8
9  11  8
9  12  8
9  16  8

$$$$
