44299157
  -OEChem-03202505192D

 64 70  0     1  0  0  0  0  0999 V2000
    7.5561    2.3172    0.0000 O   0  0  0  0  0  0  0  0  0  0  0  0
    9.3579   -1.4246    0.0000 O   0  0  0  0  0  0  0  0  0  0  0  0
    2.6636   -1.7076    0.0000 O   0  0  0  0  0  0  0  0  0  0  0  0
    2.6102    0.9883    0.0000 O   0  0  0  0  0  0  0  0  0  0  0  0
    6.9581   -0.6474    0.0000 N   0  0  0  0  0  0  0  0  0  0  0  0
    6.2740    1.2320    0.0000 N   0  0  0  0  0  0  0  0  0  0  0  0
   11.0486   -0.0555    0.0000 N   0  0  0  0  0  0  0  0  0  0  0  0
    8.0339    0.3687    0.0000 C   0  0  2  0  0  0  0  0  0  0  0  0
    9.3056   -0.4260    0.0000 C   0  0  1  0  0  0  0  0  0  0  0  0
    8.2927    1.3346    0.0000 C   0  0  3  0  0  0  0  0  0  0  0  0
   10.0827    0.2034    0.0000 C   0  0  1  0  0  0  0  0  0  0  0  0
    9.7244    1.1369    0.0000 C   0  0  0  0  0  0  0  0  0  0  0  0
    5.9733   -0.4737    0.0000 C   0  0  0  0  0  0  0  0  0  0  0  0
    5.6313    0.4660    0.0000 C   0  0  0  0  0  0  0  0  0  0  0  0
    5.3161   -1.2819    0.0000 C   0  0  0  0  0  0  0  0  0  0  0  0
    4.6084    0.6626    0.0000 C   0  0  0  0  0  0  0  0  0  0  0  0
    7.7751   -0.5972    0.0000 C   0  0  0  0  0  0  0  0  0  0  0  0
    6.9311   -1.6408    0.0000 C   0  0  0  0  0  0  0  0  0  0  0  0
    5.6148    1.9757    0.0000 C   0  0  0  0  0  0  0  0  0  0  0  0
    6.0041   -1.9990    0.0000 C   0  0  0  0  0  0  0  0  0  0  0  0
    4.6744    1.6543    0.0000 C   0  0  0  0  0  0  0  0  0  0  0  0
    4.2890   -1.1089    0.0000 C   0  0  0  0  0  0  0  0  0  0  0  0
    3.9327   -0.1301    0.0000 C   0  0  0  0  0  0  0  0  0  0  0  0
    7.7470   -2.2780    0.0000 C   0  0  0  0  0  0  0  0  0  0  0  0
    5.8303    2.9882    0.0000 C   0  0  0  0  0  0  0  0  0  0  0  0
    5.8287   -3.0193    0.0000 C   0  0  0  0  0  0  0  0  0  0  0  0
    3.6491   -1.8774    0.0000 C   0  0  0  0  0  0  0  0  0  0  0  0
    3.8843    2.3231    0.0000 C   0  0  0  0  0  0  0  0  0  0  0  0
    2.9486    0.0473    0.0000 C   0  0  0  0  0  0  0  0  0  0  0  0
   11.7558    0.6516    0.0000 C   0  0  0  0  0  0  0  0  0  0  0  0
   10.2489   -1.8786    0.0000 C   0  0  0  0  0  0  0  0  0  0  0  0
    7.5952   -3.3020    0.0000 C   0  0  0  0  0  0  0  0  0  0  0  0
    6.6296   -3.6751    0.0000 C   0  0  0  0  0  0  0  0  0  0  0  0
    5.0558    3.6751    0.0000 C   0  0  0  0  0  0  0  0  0  0  0  0
    4.0762    3.3403    0.0000 C   0  0  0  0  0  0  0  0  0  0  0  0
    9.8720   -0.6781    0.0000 H   0  0  0  0  0  0  0  0  0  0  0  0
    8.2659    0.7152    0.0000 H   0  0  0  0  0  0  0  0  0  0  0  0
   10.2116   -0.4031    0.0000 H   0  0  0  0  0  0  0  0  0  0  0  0
   10.3322    1.2593    0.0000 H   0  0  0  0  0  0  0  0  0  0  0  0
    9.7053    1.7566    0.0000 H   0  0  0  0  0  0  0  0  0  0  0  0
    7.1762   -0.4368    0.0000 H   0  0  0  0  0  0  0  0  0  0  0  0
    7.6146   -1.1961    0.0000 H   0  0  0  0  0  0  0  0  0  0  0  0
    8.3740   -0.7577    0.0000 H   0  0  0  0  0  0  0  0  0  0  0  0
   11.2091   -0.6543    0.0000 H   0  0  0  0  0  0  0  0  0  0  0  0
    8.3227   -2.0478    0.0000 H   0  0  0  0  0  0  0  0  0  0  0  0
    6.4192    3.1820    0.0000 H   0  0  0  0  0  0  0  0  0  0  0  0
    5.2478   -3.2360    0.0000 H   0  0  0  0  0  0  0  0  0  0  0  0
    3.4393   -2.4609    0.0000 H   0  0  0  0  0  0  0  0  0  0  0  0
    4.1872   -2.1854    0.0000 H   0  0  0  0  0  0  0  0  0  0  0  0
    3.3000    2.1157    0.0000 H   0  0  0  0  0  0  0  0  0  0  0  0
    2.3376   -0.0580    0.0000 H   0  0  0  0  0  0  0  0  0  0  0  0
    2.9462   -0.5727    0.0000 H   0  0  0  0  0  0  0  0  0  0  0  0
   12.1942    0.2132    0.0000 H   0  0  0  0  0  0  0  0  0  0  0  0
   12.1942    1.0900    0.0000 H   0  0  0  0  0  0  0  0  0  0  0  0
   11.3173    1.0900    0.0000 H   0  0  0  0  0  0  0  0  0  0  0  0
    9.9674   -2.4310    0.0000 H   0  0  0  0  0  0  0  0  0  0  0  0
   10.8013   -2.1600    0.0000 H   0  0  0  0  0  0  0  0  0  0  0  0
   10.5304   -1.3262    0.0000 H   0  0  0  0  0  0  0  0  0  0  0  0
    8.0794   -3.6892    0.0000 H   0  0  0  0  0  0  0  0  0  0  0  0
    6.5317   -4.2873    0.0000 H   0  0  0  0  0  0  0  0  0  0  0  0
    5.1778    4.2830    0.0000 H   0  0  0  0  0  0  0  0  0  0  0  0
    3.6077    3.7463    0.0000 H   0  0  0  0  0  0  0  0  0  0  0  0
    2.2670   -2.1841    0.0000 H   0  0  0  0  0  0  0  0  0  0  0  0
    2.0000    1.0984    0.0000 H   0  0  0  0  0  0  0  0  0  0  0  0
  1  8  1  0  0  0  0
  1 10  1  0  0  0  0
  9  2  1  1  0  0  0
  2 31  1  0  0  0  0
  3 27  1  0  0  0  0
  3 63  1  0  0  0  0
  4 29  1  0  0  0  0
  4 64  1  0  0  0  0
  5  8  1  0  0  0  0
  5 13  1  0  0  0  0
  5 18  1  0  0  0  0
  6 10  1  0  0  0  0
  6 14  1  0  0  0  0
  6 19  1  0  0  0  0
 11  7  1  1  0  0  0
  7 30  1  0  0  0  0
  7 44  1  0  0  0  0
  8  9  1  0  0  0  0
  8 17  1  6  0  0  0
  9 11  1  0  0  0  0
  9 36  1  0  0  0  0
 10 12  1  0  0  0  0
 10 37  1  0  0  0  0
 11 12  1  0  0  0  0
 11 38  1  0  0  0  0
 12 39  1  0  0  0  0
 12 40  1  0  0  0  0
 13 14  1  0  0  0  0
 13 15  2  0  0  0  0
 14 16  2  0  0  0  0
 15 20  1  0  0  0  0
 15 22  1  0  0  0  0
 16 21  1  0  0  0  0
 16 23  1  0  0  0  0
 17 41  1  0  0  0  0
 17 42  1  0  0  0  0
 17 43  1  0  0  0  0
 18 20  1  0  0  0  0
 18 24  2  0  0  0  0
 19 21  1  0  0  0  0
 19 25  2  0  0  0  0
 20 26  2  0  0  0  0
 21 28  2  0  0  0  0
 22 23  2  0  0  0  0
 22 27  1  0  0  0  0
 23 29  1  0  0  0  0
 24 32  1  0  0  0  0
 24 45  1  0  0  0  0
 25 34  1  0  0  0  0
 25 46  1  0  0  0  0
 26 33  1  0  0  0  0
 26 47  1  0  0  0  0
 27 48  1  0  0  0  0
 27 49  1  0  0  0  0
 28 35  1  0  0  0  0
 28 50  1  0  0  0  0
 29 51  1  0  0  0  0
 29 52  1  0  0  0  0
 30 53  1  0  0  0  0
 30 54  1  0  0  0  0
 30 55  1  0  0  0  0
 31 56  1  0  0  0  0
 31 57  1  0  0  0  0
 31 58  1  0  0  0  0
 32 33  2  0  0  0  0
 32 59  1  0  0  0  0
 33 60  1  0  0  0  0
 34 35  2  0  0  0  0
 34 61  1  0  0  0  0
 35 62  1  0  0  0  0
M  END
> <PUBCHEM_COMPOUND_CID>
44299157

> <PUBCHEM_COMPOUND_CANONICALIZED>
1

> <PUBCHEM_CACTVS_COMPLEXITY>
815

> <PUBCHEM_CACTVS_HBOND_ACCEPTOR>
5

> <PUBCHEM_CACTVS_HBOND_DONOR>
3

> <PUBCHEM_CACTVS_ROTATABLE_BOND>
4

> <PUBCHEM_CACTVS_SUBSKEYS>
AAADceB7OAAAAAAAAAAAAAAAAAAAAWLAAAA0YMEABYAAAFix/gAAHgAQCAAADDzhngYywPPMFgCgAyRiRACCgCQhEiAI2KA4fJgLduLA0ZGfcAhm0AHa2Afw0PMOyAACQAASACCQAASAACQAQAAAAAAAAA==

> <PUBCHEM_IUPAC_OPENEYE_NAME>
[(2S,3R,4R)-16-(hydroxymethyl)-3-methoxy-2-methyl-4-(methylamino)-26-oxa-1,7-diazaheptacyclo[12.9.2.12,6.07,25.08,13.017,24.018,23]hexacosa-8,10,12,14(25),15,17(24),18,20,22-nonaen-15-yl]methanol

> <PUBCHEM_IUPAC_CAS_NAME>
[(2S,3R,4R)-16-(hydroxymethyl)-3-methoxy-2-methyl-4-(methylamino)-26-oxa-1,7-diazaheptacyclo[12.9.2.12,6.07,25.08,13.017,24.018,23]hexacosa-8,10,12,14(25),15,17(24),18,20,22-nonaen-15-yl]methanol

> <PUBCHEM_IUPAC_NAME_MARKUP>
[(2<I>S</I>,3<I>R</I>,4<I>R</I>)-16-(hydroxymethyl)-3-methoxy-2-methyl-4-(methylamino)-26-oxa-1,7-diazaheptacyclo[12.9.2.1<SUP>2,6</SUP>.0<SUP>7,25</SUP>.0<SUP>8,13</SUP>.0<SUP>17,24</SUP>.0<SUP>18,23</SUP>]hexacosa-8,10,12,14(25),15,17(24),18,20,22-nonaen-15-yl]methanol

> <PUBCHEM_IUPAC_NAME>
[(2S,3R,4R)-16-(hydroxymethyl)-3-methoxy-2-methyl-4-(methylamino)-26-oxa-1,7-diazaheptacyclo[12.9.2.12,6.07,25.08,13.017,24.018,23]hexacosa-8,10,12,14(25),15,17(24),18,20,22-nonaen-15-yl]methanol

> <PUBCHEM_IUPAC_SYSTEMATIC_NAME>
[(2S,3R,4R)-16-(hydroxymethyl)-3-methoxy-2-methyl-4-(methylamino)-26-oxa-1,7-diazaheptacyclo[12.9.2.12,6.07,25.08,13.017,24.018,23]hexacosa-8,10,12,14(25),15,17(24),18,20,22-nonaen-15-yl]methanol

> <PUBCHEM_IUPAC_TRADITIONAL_NAME>
[(2S,3R,4R)-3-methoxy-2-methyl-4-(methylamino)-16-methylol-26-oxa-1,7-diazaheptacyclo[12.9.2.12,6.07,25.08,13.017,24.018,23]hexacosa-8,10,12,14(25),15,17(24),18,20,22-nonaen-15-yl]methanol

> <PUBCHEM_IUPAC_INCHI>
InChI=1S/C28H29N3O4/c1-28-27(34-3)19(29-2)12-22(35-28)30-20-10-6-4-8-15(20)23-17(13-32)18(14-33)24-16-9-5-7-11-21(16)31(28)26(24)25(23)30/h4-11,19,22,27,29,32-33H,12-14H2,1-3H3/t19-,22?,27-,28+/m1/s1

> <PUBCHEM_IUPAC_INCHIKEY>
LTDJBWOPRLOAFA-DKHCVSDUSA-N

> <PUBCHEM_XLOGP3_AA>
2.6

> <PUBCHEM_EXACT_MASS>
471.21580641

> <PUBCHEM_MOLECULAR_FORMULA>
C28H29N3O4

> <PUBCHEM_MOLECULAR_WEIGHT>
471.5

> <PUBCHEM_SMILES>
C[C@@]12[C@@H]([C@@H](CC(O1)N3C4=CC=CC=C4C5=C3C6=C(C7=CC=CC=C7N26)C(=C5CO)CO)NC)OC

> <PUBCHEM_OPENEYE_CAN_SMILES>
CC12C(C(CC(O1)N3C4=CC=CC=C4C5=C3C6=C(C7=CC=CC=C7N26)C(=C5CO)CO)NC)OC

> <PUBCHEM_OPENEYE_ISO_SMILES>
C[C@@]12[C@@H]([C@@H](CC(O1)N3C4=CC=CC=C4C5=C3C6=C(C7=CC=CC=C7N26)C(=C5CO)CO)NC)OC

> <PUBCHEM_CACTVS_TPSA>
80.8

> <PUBCHEM_MONOISOTOPIC_WEIGHT>
471.21580641

> <PUBCHEM_TOTAL_CHARGE>
0

> <PUBCHEM_HEAVY_ATOM_COUNT>
35

> <PUBCHEM_ATOM_DEF_STEREO_COUNT>
3

> <PUBCHEM_ATOM_UDEF_STEREO_COUNT>
1

> <PUBCHEM_BOND_DEF_STEREO_COUNT>
0

> <PUBCHEM_BOND_UDEF_STEREO_COUNT>
0

> <PUBCHEM_ISOTOPIC_ATOM_COUNT>
0

> <PUBCHEM_COMPONENT_COUNT>
1

> <PUBCHEM_CACTVS_TAUTO_COUNT>
-1

> <PUBCHEM_COORDINATE_TYPE>
1
5
255

> <PUBCHEM_BONDANNOTATIONS>
10  12  3
13  14  8
13  15  8
14  16  8
15  20  8
15  22  8
16  21  8
16  23  8
18  20  8
18  24  8
19  21  8
19  25  8
9  2  5
20  26  8
21  28  8
22  23  8
24  32  8
25  34  8
26  33  8
28  35  8
32  33  8
34  35  8
5  13  8
5  18  8
6  14  8
6  19  8
11  7  5
8  17  6

$$$$
