10143231
  -OEChem-03202505372D

 68 73  0     0  0  0  0  0  0999 V2000
    9.2894   -0.2985    0.0000 O   0  0  0  0  0  0  0  0  0  0  0  0
    6.7636    3.2540    0.0000 O   0  0  0  0  0  0  0  0  0  0  0  0
    3.2384   -2.8680    0.0000 O   0  0  0  0  0  0  0  0  0  0  0  0
    2.1431    0.1991    0.0000 O   0  0  0  0  0  0  0  0  0  0  0  0
    9.6167    2.3269    0.0000 O   0  0  0  0  0  0  0  0  0  0  0  0
    9.2009    4.2832    0.0000 O   0  0  0  0  0  0  0  0  0  0  0  0
    6.8521   -1.3278    0.0000 N   0  0  0  0  0  0  0  0  0  0  0  0
    5.2420    1.8072    0.0000 N   0  0  0  0  0  0  0  0  0  0  0  0
    2.6064   -1.2079    0.0000 N   0  0  0  0  0  0  0  0  0  0  0  0
    7.3946   -3.0750    0.0000 N   0  0  0  0  0  0  0  0  0  0  0  0
    3.5571    2.5920    0.0000 N   0  0  0  0  0  0  0  0  0  0  0  0
    5.1579   -1.6879    0.0000 C   0  0  0  0  0  0  0  0  0  0  0  0
    4.7420    0.2684    0.0000 C   0  0  0  0  0  0  0  0  0  0  0  0
    4.2068   -1.3789    0.0000 C   0  0  0  0  0  0  0  0  0  0  0  0
    3.9989   -0.4007    0.0000 C   0  0  0  0  0  0  0  0  0  0  0  0
    5.7096   -2.5204    0.0000 C   0  0  0  0  0  0  0  0  0  0  0  0
    3.9330    0.8562    0.0000 C   0  0  0  0  0  0  0  0  0  0  0  0
    6.6866   -2.3127    0.0000 C   0  0  0  0  0  0  0  0  0  0  0  0
    4.2420    1.8072    0.0000 C   0  0  0  0  0  0  0  0  0  0  0  0
    5.9010   -1.0188    0.0000 C   0  0  0  0  0  0  0  0  0  0  0  0
    5.5511    0.8562    0.0000 C   0  0  0  0  0  0  0  0  0  0  0  0
    7.5952   -0.6586    0.0000 C   0  0  0  0  0  0  0  0  0  0  0  0
    5.0341    2.7854    0.0000 C   0  0  0  0  0  0  0  0  0  0  0  0
    3.3446   -1.8737    0.0000 C   0  0  0  0  0  0  0  0  0  0  0  0
    3.0100   -0.2994    0.0000 C   0  0  0  0  0  0  0  0  0  0  0  0
    5.3730   -3.5047    0.0000 C   0  0  0  0  0  0  0  0  0  0  0  0
    2.9176    0.6239    0.0000 C   0  0  0  0  0  0  0  0  0  0  0  0
    8.5463   -0.9677    0.0000 C   0  0  0  0  0  0  0  0  0  0  0  0
    5.8125    3.5630    0.0000 C   0  0  0  0  0  0  0  0  0  0  0  0
    6.0631   -4.2832    0.0000 C   0  0  0  0  0  0  0  0  0  0  0  0
    2.2147    1.3926    0.0000 C   0  0  0  0  0  0  0  0  0  0  0  0
    7.0807   -4.0669    0.0000 C   0  0  0  0  0  0  0  0  0  0  0  0
    2.5366    2.3833    0.0000 C   0  0  0  0  0  0  0  0  0  0  0  0
    9.0815    0.6796    0.0000 C   0  0  0  0  0  0  0  0  0  0  0  0
    7.5067    3.9231    0.0000 C   0  0  0  0  0  0  0  0  0  0  0  0
    9.8246    1.3487    0.0000 C   0  0  0  0  0  0  0  0  0  0  0  0
    8.4578    3.6141    0.0000 C   0  0  0  0  0  0  0  0  0  0  0  0
   10.3599    2.9960    0.0000 C   0  0  0  0  0  0  0  0  0  0  0  0
   10.1520    3.9742    0.0000 C   0  0  0  0  0  0  0  0  0  0  0  0
    5.7721   -0.4123    0.0000 H   0  0  0  0  0  0  0  0  0  0  0  0
    6.1407    0.6646    0.0000 H   0  0  0  0  0  0  0  0  0  0  0  0
    7.8863   -0.1112    0.0000 H   0  0  0  0  0  0  0  0  0  0  0  0
    7.1066   -0.2769    0.0000 H   0  0  0  0  0  0  0  0  0  0  0  0
    4.6876    3.2995    0.0000 H   0  0  0  0  0  0  0  0  0  0  0  0
    4.4634    2.5432    0.0000 H   0  0  0  0  0  0  0  0  0  0  0  0
    2.0000   -1.3368    0.0000 H   0  0  0  0  0  0  0  0  0  0  0  0
    4.7650   -3.6266    0.0000 H   0  0  0  0  0  0  0  0  0  0  0  0
    2.7328    0.0321    0.0000 H   0  0  0  0  0  0  0  0  0  0  0  0
    8.2552   -1.5151    0.0000 H   0  0  0  0  0  0  0  0  0  0  0  0
    9.0348   -1.3494    0.0000 H   0  0  0  0  0  0  0  0  0  0  0  0
    6.0941    4.1153    0.0000 H   0  0  0  0  0  0  0  0  0  0  0  0
    5.3110    3.9276    0.0000 H   0  0  0  0  0  0  0  0  0  0  0  0
    5.8692   -4.8721    0.0000 H   0  0  0  0  0  0  0  0  0  0  0  0
    1.6087    1.2614    0.0000 H   0  0  0  0  0  0  0  0  0  0  0  0
    7.4973   -4.5260    0.0000 H   0  0  0  0  0  0  0  0  0  0  0  0
    2.1235    2.8456    0.0000 H   0  0  0  0  0  0  0  0  0  0  0  0
    8.7530    1.2054    0.0000 H   0  0  0  0  0  0  0  0  0  0  0  0
    8.5066    0.4474    0.0000 H   0  0  0  0  0  0  0  0  0  0  0  0
    7.7978    4.4705    0.0000 H   0  0  0  0  0  0  0  0  0  0  0  0
    7.0181    4.3048    0.0000 H   0  0  0  0  0  0  0  0  0  0  0  0
   10.1532    0.8230    0.0000 H   0  0  0  0  0  0  0  0  0  0  0  0
   10.3995    1.5810    0.0000 H   0  0  0  0  0  0  0  0  0  0  0  0
    8.1667    3.0666    0.0000 H   0  0  0  0  0  0  0  0  0  0  0  0
    8.9463    3.2324    0.0000 H   0  0  0  0  0  0  0  0  0  0  0  0
   10.6884    2.4702    0.0000 H   0  0  0  0  0  0  0  0  0  0  0  0
   10.9347    3.2283    0.0000 H   0  0  0  0  0  0  0  0  0  0  0  0
   10.7716    3.9958    0.0000 H   0  0  0  0  0  0  0  0  0  0  0  0
   10.2383    4.5881    0.0000 H   0  0  0  0  0  0  0  0  0  0  0  0
  1 28  1  0  0  0  0
  1 34  1  0  0  0  0
  2 29  1  0  0  0  0
  2 35  1  0  0  0  0
  3 24  2  0  0  0  0
  4 25  2  0  0  0  0
  5 36  1  0  0  0  0
  5 38  1  0  0  0  0
  6 37  1  0  0  0  0
  6 39  1  0  0  0  0
  7 18  1  0  0  0  0
  7 20  1  0  0  0  0
  7 22  1  0  0  0  0
  8 19  1  0  0  0  0
  8 21  1  0  0  0  0
  8 23  1  0  0  0  0
  9 24  1  0  0  0  0
  9 25  1  0  0  0  0
  9 46  1  0  0  0  0
 10 18  1  0  0  0  0
 10 32  2  0  0  0  0
 11 19  1  0  0  0  0
 11 33  2  0  0  0  0
 12 14  1  0  0  0  0
 12 16  1  0  0  0  0
 12 20  2  0  0  0  0
 13 15  1  0  0  0  0
 13 17  1  0  0  0  0
 13 21  2  0  0  0  0
 14 15  2  0  0  0  0
 14 24  1  0  0  0  0
 15 25  1  0  0  0  0
 16 18  2  0  0  0  0
 16 26  1  0  0  0  0
 17 19  2  0  0  0  0
 17 27  1  0  0  0  0
 20 40  1  0  0  0  0
 21 41  1  0  0  0  0
 22 28  1  0  0  0  0
 22 42  1  0  0  0  0
 22 43  1  0  0  0  0
 23 29  1  0  0  0  0
 23 44  1  0  0  0  0
 23 45  1  0  0  0  0
 26 30  2  0  0  0  0
 26 47  1  0  0  0  0
 27 31  2  0  0  0  0
 27 48  1  0  0  0  0
 28 49  1  0  0  0  0
 28 50  1  0  0  0  0
 29 51  1  0  0  0  0
 29 52  1  0  0  0  0
 30 32  1  0  0  0  0
 30 53  1  0  0  0  0
 31 33  1  0  0  0  0
 31 54  1  0  0  0  0
 32 55  1  0  0  0  0
 33 56  1  0  0  0  0
 34 36  1  0  0  0  0
 34 57  1  0  0  0  0
 34 58  1  0  0  0  0
 35 37  1  0  0  0  0
 35 59  1  0  0  0  0
 35 60  1  0  0  0  0
 36 61  1  0  0  0  0
 36 62  1  0  0  0  0
 37 63  1  0  0  0  0
 37 64  1  0  0  0  0
 38 39  1  0  0  0  0
 38 65  1  0  0  0  0
 38 66  1  0  0  0  0
 39 67  1  0  0  0  0
 39 68  1  0  0  0  0
M  END
> <PUBCHEM_COMPOUND_CID>
10143231

> <PUBCHEM_COMPOUND_CANONICALIZED>
1

> <PUBCHEM_CACTVS_COMPLEXITY>
847

> <PUBCHEM_CACTVS_HBOND_ACCEPTOR>
8

> <PUBCHEM_CACTVS_HBOND_DONOR>
1

> <PUBCHEM_CACTVS_ROTATABLE_BOND>
0

> <PUBCHEM_CACTVS_SUBSKEYS>
AAADceB7uAAAAAAAAAAAAAAAAAAAAWLEAAAsWAAAAAAAAFgB/gAAHgAQAAAADADhmwY9sN/MFACoAjN3dACCgCkxAqAJ2CE4ZNiLKPLAnZGHIAhohCLayScciQCOgAAAAAAAAAAAAAAAAAAAAAAAAAAAAA==

> <PUBCHEM_IUPAC_OPENEYE_NAME>
17,20,23,26-tetraoxa-4,12,14,29,31-pentazahexacyclo[27.6.1.17,14.02,6.08,13.030,35]heptatriaconta-1(36),2(6),7(37),8(13),9,11,30(35),31,33-nonaene-3,5-dione

> <PUBCHEM_IUPAC_CAS_NAME>
17,20,23,26-tetraoxa-4,12,14,29,31-pentazahexacyclo[27.6.1.17,14.02,6.08,13.030,35]heptatriaconta-1(36),2(6),7(37),8(13),9,11,30(35),31,33-nonaene-3,5-dione

> <PUBCHEM_IUPAC_NAME_MARKUP>
17,20,23,26-tetraoxa-4,12,14,29,31-pentazahexacyclo[27.6.1.1<SUP>7,14</SUP>.0<SUP>2,6</SUP>.0<SUP>8,13</SUP>.0<SUP>30,35</SUP>]heptatriaconta-1(36),2(6),7(37),8(13),9,11,30(35),31,33-nonaene-3,5-dione

> <PUBCHEM_IUPAC_NAME>
17,20,23,26-tetraoxa-4,12,14,29,31-pentazahexacyclo[27.6.1.17,14.02,6.08,13.030,35]heptatriaconta-1(36),2(6),7(37),8(13),9,11,30(35),31,33-nonaene-3,5-dione

> <PUBCHEM_IUPAC_SYSTEMATIC_NAME>
17,20,23,26-tetraoxa-4,12,14,29,31-pentazahexacyclo[27.6.1.17,14.02,6.08,13.030,35]heptatriaconta-1(36),2(6),7(37),8(13),9,11,30(35),31,33-nonaene-3,5-dione

> <PUBCHEM_IUPAC_TRADITIONAL_NAME>
17,20,23,26-tetraoxa-4,12,14,29,31-pentazahexacyclo[27.6.1.17,14.02,6.08,13.030,35]heptatriaconta-1(36),2(6),7(37),8(13),9,11,30(35),31,33-nonaene-3,5-quinone

> <PUBCHEM_IUPAC_INCHI>
InChI=1S/C28H29N5O6/c34-27-23-21-17-32(25-19(21)3-1-5-29-25)7-9-36-11-13-38-15-16-39-14-12-37-10-8-33-18-22(24(23)28(35)31-27)20-4-2-6-30-26(20)33/h1-6,17-18H,7-16H2,(H,31,34,35)

> <PUBCHEM_IUPAC_INCHIKEY>
GJJAFPBCJBFVII-UHFFFAOYSA-N

> <PUBCHEM_XLOGP3_AA>
0.3

> <PUBCHEM_EXACT_MASS>
531.21178366

> <PUBCHEM_MOLECULAR_FORMULA>
C28H29N5O6

> <PUBCHEM_MOLECULAR_WEIGHT>
531.6

> <PUBCHEM_SMILES>
C1COCCOCCOCCOCCN2C=C(C3=C2N=CC=C3)C4=C(C5=CN1C6=C5C=CC=N6)C(=O)NC4=O

> <PUBCHEM_OPENEYE_CAN_SMILES>
C1COCCOCCOCCOCCN2C=C(C3=C2N=CC=C3)C4=C(C5=CN1C6=C5C=CC=N6)C(=O)NC4=O

> <PUBCHEM_OPENEYE_ISO_SMILES>
C1COCCOCCOCCOCCN2C=C(C3=C2N=CC=C3)C4=C(C5=CN1C6=C5C=CC=N6)C(=O)NC4=O

> <PUBCHEM_CACTVS_TPSA>
119

> <PUBCHEM_MONOISOTOPIC_WEIGHT>
531.21178366

> <PUBCHEM_TOTAL_CHARGE>
0

> <PUBCHEM_HEAVY_ATOM_COUNT>
39

> <PUBCHEM_ATOM_DEF_STEREO_COUNT>
0

> <PUBCHEM_ATOM_UDEF_STEREO_COUNT>
0

> <PUBCHEM_BOND_DEF_STEREO_COUNT>
0

> <PUBCHEM_BOND_UDEF_STEREO_COUNT>
0

> <PUBCHEM_ISOTOPIC_ATOM_COUNT>
0

> <PUBCHEM_COMPONENT_COUNT>
1

> <PUBCHEM_CACTVS_TAUTO_COUNT>
-1

> <PUBCHEM_COORDINATE_TYPE>
1
5
255

> <PUBCHEM_BONDANNOTATIONS>
10  18  8
10  32  8
11  19  8
11  33  8
12  16  8
12  20  8
13  17  8
13  21  8
16  18  8
16  26  8
17  19  8
17  27  8
26  30  8
27  31  8
30  32  8
31  33  8
7  18  8
7  20  8
8  19  8
8  21  8

$$$$
