9958125
  -OEChem-03202505212D

 69 75  0     0  0  0  0  0  0999 V2000
    3.4026    4.1084    0.0000 O   0  0  0  0  0  0  0  0  0  0  0  0
    6.7523    5.1903    0.0000 O   0  0  0  0  0  0  0  0  0  0  0  0
    4.6783    0.7366    0.0000 N   0  0  0  0  0  0  0  0  0  0  0  0
    5.6103   -2.1150    0.0000 N   0  0  0  0  0  0  0  0  0  0  0  0
    4.9917    4.9146    0.0000 N   0  0  0  0  0  0  0  0  0  0  0  0
    7.6900    1.7094    0.0000 N   0  0  0  0  0  0  0  0  0  0  0  0
    4.9889   -0.2139    0.0000 C   0  0  0  0  0  0  0  0  0  0  0  0
    4.3211   -0.9582    0.0000 C   0  0  0  0  0  0  0  0  0  0  0  0
    5.9674   -0.4201    0.0000 C   0  0  0  0  0  0  0  0  0  0  0  0
    4.6318   -1.9087    0.0000 C   0  0  0  0  0  0  0  0  0  0  0  0
    6.2781   -1.3707    0.0000 C   0  0  0  0  0  0  0  0  0  0  0  0
    3.7320    1.0413    0.0000 C   0  0  0  0  0  0  0  0  0  0  0  0
    5.9209   -3.0655    0.0000 C   0  0  0  0  0  0  0  0  0  0  0  0
    5.2619    1.5413    0.0000 C   0  0  0  0  0  0  0  0  0  0  0  0
    4.6783    2.3461    0.0000 C   0  0  0  0  0  0  0  0  0  0  0  0
    3.7320    2.0413    0.0000 C   0  0  0  0  0  0  0  0  0  0  0  0
    4.9889    3.2966    0.0000 C   0  0  0  0  0  0  0  0  0  0  0  0
    2.8660    0.5413    0.0000 C   0  0  0  0  0  0  0  0  0  0  0  0
    5.2531   -3.8098    0.0000 C   0  0  0  0  0  0  0  0  0  0  0  0
    2.8660    2.5413    0.0000 C   0  0  0  0  0  0  0  0  0  0  0  0
    5.9405    3.6040    0.0000 C   0  0  0  0  0  0  0  0  0  0  0  0
    2.0000    1.0413    0.0000 C   0  0  0  0  0  0  0  0  0  0  0  0
    4.4026    4.1066    0.0000 C   0  0  0  0  0  0  0  0  0  0  0  0
    2.0000    2.0413    0.0000 C   0  0  0  0  0  0  0  0  0  0  0  0
    6.7485    3.0148    0.0000 C   0  0  0  0  0  0  0  0  0  0  0  0
    5.9422    4.6040    0.0000 C   0  0  0  0  0  0  0  0  0  0  0  0
    4.2746   -3.6036    0.0000 C   0  0  0  0  0  0  0  0  0  0  0  0
    5.5637   -4.7603    0.0000 C   0  0  0  0  0  0  0  0  0  0  0  0
    7.6942    3.3211    0.0000 C   0  0  0  0  0  0  0  0  0  0  0  0
    6.7459    2.0207    0.0000 C   0  0  0  0  0  0  0  0  0  0  0  0
    8.2792    2.5101    0.0000 C   0  0  0  0  0  0  0  0  0  0  0  0
    3.6067   -4.3479    0.0000 C   0  0  0  0  0  0  0  0  0  0  0  0
    4.8959   -5.5046    0.0000 C   0  0  0  0  0  0  0  0  0  0  0  0
    8.1041    4.2333    0.0000 C   0  0  0  0  0  0  0  0  0  0  0  0
    3.9174   -5.2984    0.0000 C   0  0  0  0  0  0  0  0  0  0  0  0
    9.2741    2.6112    0.0000 C   0  0  0  0  0  0  0  0  0  0  0  0
    7.9941    0.7568    0.0000 C   0  0  0  0  0  0  0  0  0  0  0  0
    9.0990    4.3344    0.0000 C   0  0  0  0  0  0  0  0  0  0  0  0
    9.6840    3.5233    0.0000 C   0  0  0  0  0  0  0  0  0  0  0  0
    5.4030    0.2475    0.0000 H   0  0  0  0  0  0  0  0  0  0  0  0
    3.9385   -0.4703    0.0000 H   0  0  0  0  0  0  0  0  0  0  0  0
    3.7742   -1.2502    0.0000 H   0  0  0  0  0  0  0  0  0  0  0  0
    6.5812   -0.3328    0.0000 H   0  0  0  0  0  0  0  0  0  0  0  0
    5.9880    0.1995    0.0000 H   0  0  0  0  0  0  0  0  0  0  0  0
    4.0179   -1.9961    0.0000 H   0  0  0  0  0  0  0  0  0  0  0  0
    4.6112   -2.5284    0.0000 H   0  0  0  0  0  0  0  0  0  0  0  0
    6.6607   -1.8586    0.0000 H   0  0  0  0  0  0  0  0  0  0  0  0
    6.8250   -1.0786    0.0000 H   0  0  0  0  0  0  0  0  0  0  0  0
    5.8819    1.5413    0.0000 H   0  0  0  0  0  0  0  0  0  0  0  0
    6.3035   -3.5534    0.0000 H   0  0  0  0  0  0  0  0  0  0  0  0
    6.4678   -2.7735    0.0000 H   0  0  0  0  0  0  0  0  0  0  0  0
    2.8660   -0.0787    0.0000 H   0  0  0  0  0  0  0  0  0  0  0  0
    2.8660    3.1613    0.0000 H   0  0  0  0  0  0  0  0  0  0  0  0
    1.4631    0.7313    0.0000 H   0  0  0  0  0  0  0  0  0  0  0  0
    1.4631    2.3513    0.0000 H   0  0  0  0  0  0  0  0  0  0  0  0
    4.0820   -3.0142    0.0000 H   0  0  0  0  0  0  0  0  0  0  0  0
    6.1704   -4.8882    0.0000 H   0  0  0  0  0  0  0  0  0  0  0  0
    4.8012    5.5046    0.0000 H   0  0  0  0  0  0  0  0  0  0  0  0
    6.2431    1.6580    0.0000 H   0  0  0  0  0  0  0  0  0  0  0  0
    3.0000   -4.2200    0.0000 H   0  0  0  0  0  0  0  0  0  0  0  0
    5.0885   -6.0939    0.0000 H   0  0  0  0  0  0  0  0  0  0  0  0
    7.7414    4.7361    0.0000 H   0  0  0  0  0  0  0  0  0  0  0  0
    3.5033   -5.7598    0.0000 H   0  0  0  0  0  0  0  0  0  0  0  0
    9.6368    2.1083    0.0000 H   0  0  0  0  0  0  0  0  0  0  0  0
    7.4035    0.5682    0.0000 H   0  0  0  0  0  0  0  0  0  0  0  0
    8.1826    0.1661    0.0000 H   0  0  0  0  0  0  0  0  0  0  0  0
    8.5848    0.9453    0.0000 H   0  0  0  0  0  0  0  0  0  0  0  0
    9.3531    4.8999    0.0000 H   0  0  0  0  0  0  0  0  0  0  0  0
   10.3008    3.5860    0.0000 H   0  0  0  0  0  0  0  0  0  0  0  0
  1 23  2  0  0  0  0
  2 26  2  0  0  0  0
  3  7  1  0  0  0  0
  3 12  1  0  0  0  0
  3 14  1  0  0  0  0
  4 10  1  0  0  0  0
  4 11  1  0  0  0  0
  4 13  1  0  0  0  0
  5 23  1  0  0  0  0
  5 26  1  0  0  0  0
  5 58  1  0  0  0  0
  6 30  1  0  0  0  0
  6 31  1  0  0  0  0
  6 37  1  0  0  0  0
  7  8  1  0  0  0  0
  7  9  1  0  0  0  0
  7 40  1  0  0  0  0
  8 10  1  0  0  0  0
  8 41  1  0  0  0  0
  8 42  1  0  0  0  0
  9 11  1  0  0  0  0
  9 43  1  0  0  0  0
  9 44  1  0  0  0  0
 10 45  1  0  0  0  0
 10 46  1  0  0  0  0
 11 47  1  0  0  0  0
 11 48  1  0  0  0  0
 12 16  1  0  0  0  0
 12 18  2  0  0  0  0
 13 19  1  0  0  0  0
 13 50  1  0  0  0  0
 13 51  1  0  0  0  0
 14 15  2  0  0  0  0
 14 49  1  0  0  0  0
 15 16  1  0  0  0  0
 15 17  1  0  0  0  0
 16 20  2  0  0  0  0
 17 21  2  0  0  0  0
 17 23  1  0  0  0  0
 18 22  1  0  0  0  0
 18 52  1  0  0  0  0
 19 27  2  0  0  0  0
 19 28  1  0  0  0  0
 20 24  1  0  0  0  0
 20 53  1  0  0  0  0
 21 25  1  0  0  0  0
 21 26  1  0  0  0  0
 22 24  2  0  0  0  0
 22 54  1  0  0  0  0
 24 55  1  0  0  0  0
 25 29  1  0  0  0  0
 25 30  2  0  0  0  0
 27 32  1  0  0  0  0
 27 56  1  0  0  0  0
 28 33  2  0  0  0  0
 28 57  1  0  0  0  0
 29 31  1  0  0  0  0
 29 34  2  0  0  0  0
 30 59  1  0  0  0  0
 31 36  2  0  0  0  0
 32 35  2  0  0  0  0
 32 60  1  0  0  0  0
 33 35  1  0  0  0  0
 33 61  1  0  0  0  0
 34 38  1  0  0  0  0
 34 62  1  0  0  0  0
 35 63  1  0  0  0  0
 36 39  1  0  0  0  0
 36 64  1  0  0  0  0
 37 65  1  0  0  0  0
 37 66  1  0  0  0  0
 37 67  1  0  0  0  0
 38 39  2  0  0  0  0
 38 68  1  0  0  0  0
 39 69  1  0  0  0  0
M  END
> <PUBCHEM_COMPOUND_CID>
9958125

> <PUBCHEM_COMPOUND_CANONICALIZED>
1

> <PUBCHEM_CACTVS_COMPLEXITY>
965

> <PUBCHEM_CACTVS_HBOND_ACCEPTOR>
3

> <PUBCHEM_CACTVS_HBOND_DONOR>
1

> <PUBCHEM_CACTVS_ROTATABLE_BOND>
5

> <PUBCHEM_CACTVS_SUBSKEYS>
AAADceB/sAAAAAAAAAAAAAAAAAAAAWLEAAA8YMEAAAAAAFgB/gAAHgAQAAAADCjBngQ+wPPMEACoAzV3VACCgCAxAiAI2CE4ZNgIIPLA1ZGEIAhghCDIyQccicCegAAAAAACAAAAAAAAAAQAAAAAAAAAAA==

> <PUBCHEM_IUPAC_OPENEYE_NAME>
3-[1-(1-benzyl-4-piperidyl)indol-3-yl]-4-(1-methylindol-3-yl)pyrrole-2,5-dione

> <PUBCHEM_IUPAC_CAS_NAME>
3-(1-methyl-3-indolyl)-4-[1-[1-(phenylmethyl)-4-piperidinyl]-3-indolyl]pyrrole-2,5-dione

> <PUBCHEM_IUPAC_NAME_MARKUP>
3-[1-(1-benzylpiperidin-4-yl)indol-3-yl]-4-(1-methylindol-3-yl)pyrrole-2,5-dione

> <PUBCHEM_IUPAC_NAME>
3-[1-(1-benzylpiperidin-4-yl)indol-3-yl]-4-(1-methylindol-3-yl)pyrrole-2,5-dione

> <PUBCHEM_IUPAC_SYSTEMATIC_NAME>
3-(1-methylindol-3-yl)-4-[1-[1-(phenylmethyl)piperidin-4-yl]indol-3-yl]pyrrole-2,5-dione

> <PUBCHEM_IUPAC_TRADITIONAL_NAME>
3-[1-(1-benzyl-4-piperidyl)indol-3-yl]-4-(1-methylindol-3-yl)-3-pyrroline-2,5-quinone

> <PUBCHEM_IUPAC_INCHI>
InChI=1S/C33H30N4O2/c1-35-20-26(24-11-5-7-13-28(24)35)30-31(33(39)34-32(30)38)27-21-37(29-14-8-6-12-25(27)29)23-15-17-36(18-16-23)19-22-9-3-2-4-10-22/h2-14,20-21,23H,15-19H2,1H3,(H,34,38,39)

> <PUBCHEM_IUPAC_INCHIKEY>
IKOMOLGHHLGWPZ-UHFFFAOYSA-N

> <PUBCHEM_XLOGP3_AA>
4.7

> <PUBCHEM_EXACT_MASS>
514.23687621

> <PUBCHEM_MOLECULAR_FORMULA>
C33H30N4O2

> <PUBCHEM_MOLECULAR_WEIGHT>
514.6

> <PUBCHEM_SMILES>
CN1C=C(C2=CC=CC=C21)C3=C(C(=O)NC3=O)C4=CN(C5=CC=CC=C54)C6CCN(CC6)CC7=CC=CC=C7

> <PUBCHEM_OPENEYE_CAN_SMILES>
CN1C=C(C2=CC=CC=C21)C3=C(C(=O)NC3=O)C4=CN(C5=CC=CC=C54)C6CCN(CC6)CC7=CC=CC=C7

> <PUBCHEM_OPENEYE_ISO_SMILES>
CN1C=C(C2=CC=CC=C21)C3=C(C(=O)NC3=O)C4=CN(C5=CC=CC=C54)C6CCN(CC6)CC7=CC=CC=C7

> <PUBCHEM_CACTVS_TPSA>
59.3

> <PUBCHEM_MONOISOTOPIC_WEIGHT>
514.23687621

> <PUBCHEM_TOTAL_CHARGE>
0

> <PUBCHEM_HEAVY_ATOM_COUNT>
39

> <PUBCHEM_ATOM_DEF_STEREO_COUNT>
0

> <PUBCHEM_ATOM_UDEF_STEREO_COUNT>
0

> <PUBCHEM_BOND_DEF_STEREO_COUNT>
0

> <PUBCHEM_BOND_UDEF_STEREO_COUNT>
0

> <PUBCHEM_ISOTOPIC_ATOM_COUNT>
0

> <PUBCHEM_COMPONENT_COUNT>
1

> <PUBCHEM_CACTVS_TAUTO_COUNT>
-1

> <PUBCHEM_COORDINATE_TYPE>
1
5
255

> <PUBCHEM_BONDANNOTATIONS>
12  16  8
12  18  8
14  15  8
15  16  8
16  20  8
18  22  8
19  27  8
19  28  8
20  24  8
22  24  8
25  29  8
25  30  8
27  32  8
28  33  8
29  31  8
29  34  8
3  12  8
3  14  8
31  36  8
32  35  8
33  35  8
34  38  8
36  39  8
38  39  8
6  30  8
6  31  8

$$$$
