613127
  -OEChem-03202505322D

 37 40  0     1  0  0  0  0  0999 V2000
    8.1884   -2.2710    0.0000 Cl  0  0  0  0  0  0  0  0  0  0  0  0
    2.0000   -0.7744    0.0000 Cl  0  0  0  0  0  0  0  0  0  0  0  0
   11.6525   -2.2844    0.0000 Cl  0  0  0  0  0  0  0  0  0  0  0  0
    7.2785    2.2844    0.0000 O   0  0  0  0  0  0  0  0  0  0  0  0
    5.5301    2.2498    0.0000 O   0  0  0  0  0  0  0  0  0  0  0  0
    5.5301   -0.7502    0.0000 N   0  0  0  0  0  0  0  0  0  0  0  0
    8.1962   -0.2710    0.0000 C   0  0  3  0  0  0  0  0  0  0  0  0
    7.2901   -0.7849    0.0000 C   0  0  0  0  0  0  0  0  0  0  0  0
    8.1962    0.7706    0.0000 C   0  0  0  0  0  0  0  0  0  0  0  0
    6.3961   -0.2502    0.0000 C   0  0  0  0  0  0  0  0  0  0  0  0
    6.3961    0.7498    0.0000 C   0  0  0  0  0  0  0  0  0  0  0  0
    7.2901    1.2844    0.0000 C   0  0  0  0  0  0  0  0  0  0  0  0
    9.0602   -0.7744    0.0000 C   0  0  0  0  0  0  0  0  0  0  0  0
    5.5301    1.2498    0.0000 C   0  0  0  0  0  0  0  0  0  0  0  0
    4.6641   -0.2502    0.0000 C   0  0  0  0  0  0  0  0  0  0  0  0
    4.6641    0.7498    0.0000 C   0  0  0  0  0  0  0  0  0  0  0  0
    9.0564   -1.7744    0.0000 C   0  0  0  0  0  0  0  0  0  0  0  0
    9.9282   -0.2777    0.0000 C   0  0  0  0  0  0  0  0  0  0  0  0
    3.7702   -0.7849    0.0000 C   0  0  0  0  0  0  0  0  0  0  0  0
    3.7702    1.2844    0.0000 C   0  0  0  0  0  0  0  0  0  0  0  0
    9.9205   -2.2777    0.0000 C   0  0  0  0  0  0  0  0  0  0  0  0
   10.7923   -0.7810    0.0000 C   0  0  0  0  0  0  0  0  0  0  0  0
    2.8641   -0.2710    0.0000 C   0  0  0  0  0  0  0  0  0  0  0  0
   10.7884   -1.7810    0.0000 C   0  0  0  0  0  0  0  0  0  0  0  0
    2.8641    0.7706    0.0000 C   0  0  0  0  0  0  0  0  0  0  0  0
    8.1926   -0.8910    0.0000 H   0  0  0  0  0  0  0  0  0  0  0  0
    6.8855   -1.2547    0.0000 H   0  0  0  0  0  0  0  0  0  0  0  0
    7.6837   -1.2639    0.0000 H   0  0  0  0  0  0  0  0  0  0  0  0
    8.8070    0.6645    0.0000 H   0  0  0  0  0  0  0  0  0  0  0  0
    8.4052    1.3543    0.0000 H   0  0  0  0  0  0  0  0  0  0  0  0
    5.5301   -1.3702    0.0000 H   0  0  0  0  0  0  0  0  0  0  0  0
    9.9306    0.3423    0.0000 H   0  0  0  0  0  0  0  0  0  0  0  0
    3.7773   -1.4048    0.0000 H   0  0  0  0  0  0  0  0  0  0  0  0
    3.7773    1.9044    0.0000 H   0  0  0  0  0  0  0  0  0  0  0  0
    9.9181   -2.8977    0.0000 H   0  0  0  0  0  0  0  0  0  0  0  0
   11.3304   -0.4731    0.0000 H   0  0  0  0  0  0  0  0  0  0  0  0
    2.3284    1.0827    0.0000 H   0  0  0  0  0  0  0  0  0  0  0  0
  1 17  1  0  0  0  0
  2 23  1  0  0  0  0
  3 24  1  0  0  0  0
  4 12  2  0  0  0  0
  5 14  2  0  0  0  0
  6 10  1  0  0  0  0
  6 15  1  0  0  0  0
  6 31  1  0  0  0  0
  7  8  1  0  0  0  0
  7  9  1  0  0  0  0
  7 13  1  0  0  0  0
  7 26  1  0  0  0  0
  8 10  1  0  0  0  0
  8 27  1  0  0  0  0
  8 28  1  0  0  0  0
  9 12  1  0  0  0  0
  9 29  1  0  0  0  0
  9 30  1  0  0  0  0
 10 11  2  0  0  0  0
 11 12  1  0  0  0  0
 11 14  1  0  0  0  0
 13 17  2  0  0  0  0
 13 18  1  0  0  0  0
 14 16  1  0  0  0  0
 15 16  2  0  0  0  0
 15 19  1  0  0  0  0
 16 20  1  0  0  0  0
 17 21  1  0  0  0  0
 18 22  2  0  0  0  0
 18 32  1  0  0  0  0
 19 23  2  0  0  0  0
 19 33  1  0  0  0  0
 20 25  2  0  0  0  0
 20 34  1  0  0  0  0
 21 24  2  0  0  0  0
 21 35  1  0  0  0  0
 22 24  1  0  0  0  0
 22 36  1  0  0  0  0
 23 25  1  0  0  0  0
 25 37  1  0  0  0  0
M  END
> <PUBCHEM_COMPOUND_CID>
613127

> <PUBCHEM_COMPOUND_CANONICALIZED>
1

> <PUBCHEM_CACTVS_COMPLEXITY>
620

> <PUBCHEM_CACTVS_HBOND_ACCEPTOR>
3

> <PUBCHEM_CACTVS_HBOND_DONOR>
1

> <PUBCHEM_CACTVS_ROTATABLE_BOND>
1

> <PUBCHEM_CACTVS_SUBSKEYS>
AAADccB6MAAGAAAAAAAAAAAAAAAAAAAAAAAwYIEAAAAAAACxQAAAHgIQAAAADQ6BmCAwwILAAACIAqRSQACCAAAlBwAIiAEAZsgIIDrJl5GEIYhgkADIyccYicCehAAAAAKDAAAIAAAABQYAAAAAAAAAAA==

> <PUBCHEM_IUPAC_OPENEYE_NAME>
6-chloro-3-(2,4-dichlorophenyl)-2,3,4,10-tetrahydroacridine-1,9-dione

> <PUBCHEM_IUPAC_CAS_NAME>
6-chloro-3-(2,4-dichlorophenyl)-2,3,4,10-tetrahydroacridine-1,9-dione

> <PUBCHEM_IUPAC_NAME_MARKUP>
6-chloro-3-(2,4-dichlorophenyl)-2,3,4,10-tetrahydroacridine-1,9-dione

> <PUBCHEM_IUPAC_NAME>
6-chloro-3-(2,4-dichlorophenyl)-2,3,4,10-tetrahydroacridine-1,9-dione

> <PUBCHEM_IUPAC_SYSTEMATIC_NAME>
6-chloranyl-3-(2,4-dichlorophenyl)-2,3,4,10-tetrahydroacridine-1,9-dione

> <PUBCHEM_IUPAC_TRADITIONAL_NAME>
6-chloro-3-(2,4-dichlorophenyl)-2,3,4,10-tetrahydroacridine-1,9-quinone

> <PUBCHEM_IUPAC_INCHI>
InChI=1S/C19H12Cl3NO2/c20-10-1-3-12(14(22)7-10)9-5-16-18(17(24)6-9)19(25)13-4-2-11(21)8-15(13)23-16/h1-4,7-9H,5-6H2,(H,23,25)

> <PUBCHEM_IUPAC_INCHIKEY>
CNWMKSDNKYKWRI-UHFFFAOYSA-N

> <PUBCHEM_XLOGP3_AA>
5.2

> <PUBCHEM_EXACT_MASS>
390.993362

> <PUBCHEM_MOLECULAR_FORMULA>
C19H12Cl3NO2

> <PUBCHEM_MOLECULAR_WEIGHT>
392.7

> <PUBCHEM_SMILES>
C1C(CC(=O)C2=C1NC3=C(C2=O)C=CC(=C3)Cl)C4=C(C=C(C=C4)Cl)Cl

> <PUBCHEM_OPENEYE_CAN_SMILES>
C1C(CC(=O)C2=C1NC3=C(C2=O)C=CC(=C3)Cl)C4=C(C=C(C=C4)Cl)Cl

> <PUBCHEM_OPENEYE_ISO_SMILES>
C1C(CC(=O)C2=C1NC3=C(C2=O)C=CC(=C3)Cl)C4=C(C=C(C=C4)Cl)Cl

> <PUBCHEM_CACTVS_TPSA>
46.2

> <PUBCHEM_MONOISOTOPIC_WEIGHT>
390.993362

> <PUBCHEM_TOTAL_CHARGE>
0

> <PUBCHEM_HEAVY_ATOM_COUNT>
25

> <PUBCHEM_ATOM_DEF_STEREO_COUNT>
0

> <PUBCHEM_ATOM_UDEF_STEREO_COUNT>
1

> <PUBCHEM_BOND_DEF_STEREO_COUNT>
0

> <PUBCHEM_BOND_UDEF_STEREO_COUNT>
0

> <PUBCHEM_ISOTOPIC_ATOM_COUNT>
0

> <PUBCHEM_COMPONENT_COUNT>
1

> <PUBCHEM_CACTVS_TAUTO_COUNT>
-1

> <PUBCHEM_COORDINATE_TYPE>
1
5
255

> <PUBCHEM_BONDANNOTATIONS>
10  11  8
11  14  8
13  17  8
13  18  8
14  16  8
15  16  8
15  19  8
16  20  8
17  21  8
18  22  8
19  23  8
20  25  8
21  24  8
22  24  8
23  25  8
6  10  8
6  15  8
7  13  3

$$$$
