24905325
  -OEChem-03192523582D

 36 39  0     0  0  0  0  0  0999 V2000
    5.9209    3.8532    0.0000 F   0  0  0  0  0  0  0  0  0  0  0  0
    7.2566    2.3646    0.0000 O   0  0  0  0  0  0  0  0  0  0  0  0
    4.6783   -1.5584    0.0000 N   0  0  0  0  0  0  0  0  0  0  0  0
    5.2619   -0.7537    0.0000 N   0  0  0  0  0  0  0  0  0  0  0  0
    2.8660   -1.7537    0.0000 N   0  0  0  0  0  0  0  0  0  0  0  0
    2.0000   -0.2537    0.0000 N   0  0  0  0  0  0  0  0  0  0  0  0
    2.8660    1.2463    0.0000 N   0  0  0  0  0  0  0  0  0  0  0  0
    4.9889   -2.5089    0.0000 C   0  0  0  0  0  0  0  0  0  0  0  0
    5.8807   -2.9614    0.0000 C   0  0  0  0  0  0  0  0  0  0  0  0
    4.5365   -3.4007    0.0000 C   0  0  0  0  0  0  0  0  0  0  0  0
    5.4283   -3.8532    0.0000 C   0  0  0  0  0  0  0  0  0  0  0  0
    3.7320   -1.2537    0.0000 C   0  0  0  0  0  0  0  0  0  0  0  0
    3.7320   -0.2537    0.0000 C   0  0  0  0  0  0  0  0  0  0  0  0
    4.6783    0.0511    0.0000 C   0  0  0  0  0  0  0  0  0  0  0  0
    4.9889    1.0016    0.0000 C   0  0  0  0  0  0  0  0  0  0  0  0
    2.8660    0.2463    0.0000 C   0  0  0  0  0  0  0  0  0  0  0  0
    2.0000   -1.2537    0.0000 C   0  0  0  0  0  0  0  0  0  0  0  0
    5.9674    1.2078    0.0000 C   0  0  0  0  0  0  0  0  0  0  0  0
    4.3211    1.7459    0.0000 C   0  0  0  0  0  0  0  0  0  0  0  0
    6.2781    2.1583    0.0000 C   0  0  0  0  0  0  0  0  0  0  0  0
    4.6318    2.6964    0.0000 C   0  0  0  0  0  0  0  0  0  0  0  0
    5.6103    2.9026    0.0000 C   0  0  0  0  0  0  0  0  0  0  0  0
    5.4597   -2.1054    0.0000 H   0  0  0  0  0  0  0  0  0  0  0  0
    6.4336   -3.2419    0.0000 H   0  0  0  0  0  0  0  0  0  0  0  0
    6.1612   -2.4085    0.0000 H   0  0  0  0  0  0  0  0  0  0  0  0
    3.9836   -3.1202    0.0000 H   0  0  0  0  0  0  0  0  0  0  0  0
    4.2560   -3.9536    0.0000 H   0  0  0  0  0  0  0  0  0  0  0  0
    5.1478   -4.4061    0.0000 H   0  0  0  0  0  0  0  0  0  0  0  0
    5.9812   -4.1337    0.0000 H   0  0  0  0  0  0  0  0  0  0  0  0
    1.4631   -1.5637    0.0000 H   0  0  0  0  0  0  0  0  0  0  0  0
    6.3815    0.7463    0.0000 H   0  0  0  0  0  0  0  0  0  0  0  0
    3.7144    1.6180    0.0000 H   0  0  0  0  0  0  0  0  0  0  0  0
    2.3291    1.5563    0.0000 H   0  0  0  0  0  0  0  0  0  0  0  0
    3.4030    1.5563    0.0000 H   0  0  0  0  0  0  0  0  0  0  0  0
    4.2177    3.1579    0.0000 H   0  0  0  0  0  0  0  0  0  0  0  0
    7.6707    1.9031    0.0000 H   0  0  0  0  0  0  0  0  0  0  0  0
  1 22  1  0  0  0  0
  2 20  1  0  0  0  0
  2 36  1  0  0  0  0
  3  4  1  0  0  0  0
  3  8  1  0  0  0  0
  3 12  1  0  0  0  0
  4 14  2  0  0  0  0
  5 12  2  0  0  0  0
  5 17  1  0  0  0  0
  6 16  1  0  0  0  0
  6 17  2  0  0  0  0
  7 16  1  0  0  0  0
  7 33  1  0  0  0  0
  7 34  1  0  0  0  0
  8  9  1  0  0  0  0
  8 10  1  0  0  0  0
  8 23  1  0  0  0  0
  9 11  1  0  0  0  0
  9 24  1  0  0  0  0
  9 25  1  0  0  0  0
 10 11  1  0  0  0  0
 10 26  1  0  0  0  0
 10 27  1  0  0  0  0
 11 28  1  0  0  0  0
 11 29  1  0  0  0  0
 12 13  1  0  0  0  0
 13 14  1  0  0  0  0
 13 16  2  0  0  0  0
 14 15  1  0  0  0  0
 15 18  2  0  0  0  0
 15 19  1  0  0  0  0
 17 30  1  0  0  0  0
 18 20  1  0  0  0  0
 18 31  1  0  0  0  0
 19 21  2  0  0  0  0
 19 32  1  0  0  0  0
 20 22  2  0  0  0  0
 21 22  1  0  0  0  0
 21 35  1  0  0  0  0
M  END
> <PUBCHEM_COMPOUND_CID>
24905325

> <PUBCHEM_COMPOUND_CANONICALIZED>
1

> <PUBCHEM_CACTVS_COMPLEXITY>
409

> <PUBCHEM_CACTVS_HBOND_ACCEPTOR>
6

> <PUBCHEM_CACTVS_HBOND_DONOR>
2

> <PUBCHEM_CACTVS_ROTATABLE_BOND>
2

> <PUBCHEM_CACTVS_SUBSKEYS>
AAADccBzoQAAAAAAAAAAAAAAAABgAWAAAAA8QAAAAAAAAFgB/AAAHwAYCAAADCzBnww1tt5IEgCiAyZjZACShCsxoKAd2CAuTJiILqLC2dOE9AhsyBPI2CewwPAOAAABAAAAAAAAAAIAAAAAAAAAAAAAAA==

> <PUBCHEM_IUPAC_OPENEYE_NAME>
5-(4-amino-1-cyclobutyl-pyrazolo[3,4-d]pyrimidin-3-yl)-2-fluoro-phenol

> <PUBCHEM_IUPAC_CAS_NAME>
5-(4-amino-1-cyclobutyl-3-pyrazolo[3,4-d]pyrimidinyl)-2-fluorophenol

> <PUBCHEM_IUPAC_NAME_MARKUP>
5-(4-amino-1-cyclobutylpyrazolo[3,4-d]pyrimidin-3-yl)-2-fluorophenol

> <PUBCHEM_IUPAC_NAME>
5-(4-amino-1-cyclobutylpyrazolo[3,4-d]pyrimidin-3-yl)-2-fluorophenol

> <PUBCHEM_IUPAC_SYSTEMATIC_NAME>
5-(4-azanyl-1-cyclobutyl-pyrazolo[3,4-d]pyrimidin-3-yl)-2-fluoranyl-phenol

> <PUBCHEM_IUPAC_TRADITIONAL_NAME>
5-(4-amino-1-cyclobutyl-pyrazolo[3,4-d]pyrimidin-3-yl)-2-fluoro-phenol

> <PUBCHEM_IUPAC_INCHI>
InChI=1S/C15H14FN5O/c16-10-5-4-8(6-11(10)22)13-12-14(17)18-7-19-15(12)21(20-13)9-2-1-3-9/h4-7,9,22H,1-3H2,(H2,17,18,19)

> <PUBCHEM_IUPAC_INCHIKEY>
KUMLEJXITHSWSP-UHFFFAOYSA-N

> <PUBCHEM_XLOGP3_AA>
2.1

> <PUBCHEM_EXACT_MASS>
299.11823825

> <PUBCHEM_MOLECULAR_FORMULA>
C15H14FN5O

> <PUBCHEM_MOLECULAR_WEIGHT>
299.30

> <PUBCHEM_SMILES>
C1CC(C1)N2C3=NC=NC(=C3C(=N2)C4=CC(=C(C=C4)F)O)N

> <PUBCHEM_OPENEYE_CAN_SMILES>
C1CC(C1)N2C3=NC=NC(=C3C(=N2)C4=CC(=C(C=C4)F)O)N

> <PUBCHEM_OPENEYE_ISO_SMILES>
C1CC(C1)N2C3=NC=NC(=C3C(=N2)C4=CC(=C(C=C4)F)O)N

> <PUBCHEM_CACTVS_TPSA>
89.9

> <PUBCHEM_MONOISOTOPIC_WEIGHT>
299.11823825

> <PUBCHEM_TOTAL_CHARGE>
0

> <PUBCHEM_HEAVY_ATOM_COUNT>
22

> <PUBCHEM_ATOM_DEF_STEREO_COUNT>
0

> <PUBCHEM_ATOM_UDEF_STEREO_COUNT>
0

> <PUBCHEM_BOND_DEF_STEREO_COUNT>
0

> <PUBCHEM_BOND_UDEF_STEREO_COUNT>
0

> <PUBCHEM_ISOTOPIC_ATOM_COUNT>
0

> <PUBCHEM_COMPONENT_COUNT>
1

> <PUBCHEM_CACTVS_TAUTO_COUNT>
-1

> <PUBCHEM_COORDINATE_TYPE>
1
5
255

> <PUBCHEM_BONDANNOTATIONS>
12  13  8
13  14  8
13  16  8
15  18  8
15  19  8
18  20  8
19  21  8
20  22  8
21  22  8
3  12  8
3  4  8
4  14  8
5  12  8
5  17  8
6  16  8
6  17  8

$$$$
