49830575
  -OEChem-03202502502D

 35 38  0     0  0  0  0  0  0999 V2000
    2.5042    0.2129    0.0000 Cl  0  0  0  0  0  0  0  0  0  0  0  0
    6.1349    2.7093    0.0000 O   0  0  0  0  0  0  0  0  0  0  0  0
    7.0688   -0.3823    0.0000 N   0  0  0  0  0  0  0  0  0  0  0  0
    7.5688    1.8083    0.0000 N   0  0  0  0  0  0  0  0  0  0  0  0
    2.2263   -2.4182    0.0000 N   0  0  0  0  0  0  0  0  0  0  0  0
    6.1678    0.0516    0.0000 C   0  0  0  0  0  0  0  0  0  0  0  0
    5.9453    1.0265    0.0000 C   0  0  0  0  0  0  0  0  0  0  0  0
    7.9698    0.0516    0.0000 C   0  0  0  0  0  0  0  0  0  0  0  0
    4.4176   -0.3693    0.0000 C   0  0  0  0  0  0  0  0  0  0  0  0
    5.4152   -0.6686    0.0000 C   0  0  0  0  0  0  0  0  0  0  0  0
    8.1923    1.0265    0.0000 C   0  0  0  0  0  0  0  0  0  0  0  0
    4.9548    1.3488    0.0000 C   0  0  0  0  0  0  0  0  0  0  0  0
    6.5688    1.8083    0.0000 C   0  0  0  0  0  0  0  0  0  0  0  0
    4.1858    0.6463    0.0000 C   0  0  0  0  0  0  0  0  0  0  0  0
    3.6871   -1.0522    0.0000 C   0  0  0  0  0  0  0  0  0  0  0  0
    8.7223   -0.6686    0.0000 C   0  0  0  0  0  0  0  0  0  0  0  0
    9.1828    1.3488    0.0000 C   0  0  0  0  0  0  0  0  0  0  0  0
    9.7200   -0.3693    0.0000 C   0  0  0  0  0  0  0  0  0  0  0  0
    9.9518    0.6462    0.0000 C   0  0  0  0  0  0  0  0  0  0  0  0
    2.7304   -0.7612    0.0000 C   0  0  0  0  0  0  0  0  0  0  0  0
    3.9134   -2.0263    0.0000 C   0  0  0  0  0  0  0  0  0  0  0  0
    2.0000   -1.4442    0.0000 C   0  0  0  0  0  0  0  0  0  0  0  0
    3.1830   -2.7093    0.0000 C   0  0  0  0  0  0  0  0  0  0  0  0
    7.0688   -1.0023    0.0000 H   0  0  0  0  0  0  0  0  0  0  0  0
    5.5602   -1.2714    0.0000 H   0  0  0  0  0  0  0  0  0  0  0  0
    4.8238    1.9548    0.0000 H   0  0  0  0  0  0  0  0  0  0  0  0
    3.5940    0.8313    0.0000 H   0  0  0  0  0  0  0  0  0  0  0  0
    7.8378    2.3669    0.0000 H   0  0  0  0  0  0  0  0  0  0  0  0
    8.5773   -1.2714    0.0000 H   0  0  0  0  0  0  0  0  0  0  0  0
    9.3138    1.9548    0.0000 H   0  0  0  0  0  0  0  0  0  0  0  0
   10.1729   -0.7928    0.0000 H   0  0  0  0  0  0  0  0  0  0  0  0
   10.5435    0.8312    0.0000 H   0  0  0  0  0  0  0  0  0  0  0  0
    4.5066   -2.2068    0.0000 H   0  0  0  0  0  0  0  0  0  0  0  0
    1.4068   -1.2637    0.0000 H   0  0  0  0  0  0  0  0  0  0  0  0
    3.3233   -3.3132    0.0000 H   0  0  0  0  0  0  0  0  0  0  0  0
  1 20  1  0  0  0  0
  2 13  2  0  0  0  0
  3  6  1  0  0  0  0
  3  8  1  0  0  0  0
  3 24  1  0  0  0  0
  4 11  1  0  0  0  0
  4 13  1  0  0  0  0
  4 28  1  0  0  0  0
  5 22  2  0  0  0  0
  5 23  1  0  0  0  0
  6  7  2  0  0  0  0
  6 10  1  0  0  0  0
  7 12  1  0  0  0  0
  7 13  1  0  0  0  0
  8 11  1  0  0  0  0
  8 16  2  0  0  0  0
  9 10  2  0  0  0  0
  9 14  1  0  0  0  0
  9 15  1  0  0  0  0
 10 25  1  0  0  0  0
 11 17  2  0  0  0  0
 12 14  2  0  0  0  0
 12 26  1  0  0  0  0
 14 27  1  0  0  0  0
 15 20  2  0  0  0  0
 15 21  1  0  0  0  0
 16 18  1  0  0  0  0
 16 29  1  0  0  0  0
 17 19  1  0  0  0  0
 17 30  1  0  0  0  0
 18 19  2  0  0  0  0
 18 31  1  0  0  0  0
 19 32  1  0  0  0  0
 20 22  1  0  0  0  0
 21 23  2  0  0  0  0
 21 33  1  0  0  0  0
 22 34  1  0  0  0  0
 23 35  1  0  0  0  0
M  END
> <PUBCHEM_COMPOUND_CID>
49830575

> <PUBCHEM_COMPOUND_CANONICALIZED>
1

> <PUBCHEM_CACTVS_COMPLEXITY>
446

> <PUBCHEM_CACTVS_HBOND_ACCEPTOR>
3

> <PUBCHEM_CACTVS_HBOND_DONOR>
2

> <PUBCHEM_CACTVS_ROTATABLE_BOND>
1

> <PUBCHEM_CACTVS_SUBSKEYS>
AAADccB7IAAEAAAAAAAAAAAAAAAAAAAAAAA8YIAABYAAAAAB0AAAHgIQAAAADArBmiQ8wJLIEACoAjV3VACCgCA1ByAI2CE4dtgIYHrB15HUIYhglADIyccYiMCOwAAAQAACACCAAACAAAQAQAAAAAAAAA==

> <PUBCHEM_IUPAC_OPENEYE_NAME>
9-(3-chloro-4-pyridyl)-5,11-dihydrobenzo[b][1,4]benzodiazepin-6-one

> <PUBCHEM_IUPAC_CAS_NAME>
9-(3-chloro-4-pyridinyl)-5,11-dihydrobenzo[b][1,4]benzodiazepin-6-one

> <PUBCHEM_IUPAC_NAME_MARKUP>
9-(3-chloropyridin-4-yl)-5,11-dihydrobenzo[b][1,4]benzodiazepin-6-one

> <PUBCHEM_IUPAC_NAME>
9-(3-chloropyridin-4-yl)-5,11-dihydrobenzo[b][1,4]benzodiazepin-6-one

> <PUBCHEM_IUPAC_SYSTEMATIC_NAME>
9-(3-chloranylpyridin-4-yl)-5,11-dihydrobenzo[b][1,4]benzodiazepin-6-one

> <PUBCHEM_IUPAC_TRADITIONAL_NAME>
9-(3-chloro-4-pyridyl)-5,11-dihydrobenzo[b][1,4]benzodiazepin-6-one

> <PUBCHEM_IUPAC_INCHI>
InChI=1S/C18H12ClN3O/c19-14-10-20-8-7-12(14)11-5-6-13-17(9-11)21-15-3-1-2-4-16(15)22-18(13)23/h1-10,21H,(H,22,23)

> <PUBCHEM_IUPAC_INCHIKEY>
BLUHZSPELLCJKH-UHFFFAOYSA-N

> <PUBCHEM_XLOGP3_AA>
3.6

> <PUBCHEM_EXACT_MASS>
321.0668897

> <PUBCHEM_MOLECULAR_FORMULA>
C18H12ClN3O

> <PUBCHEM_MOLECULAR_WEIGHT>
321.8

> <PUBCHEM_SMILES>
C1=CC=C2C(=C1)NC3=C(C=CC(=C3)C4=C(C=NC=C4)Cl)C(=O)N2

> <PUBCHEM_OPENEYE_CAN_SMILES>
C1=CC=C2C(=C1)NC3=C(C=CC(=C3)C4=C(C=NC=C4)Cl)C(=O)N2

> <PUBCHEM_OPENEYE_ISO_SMILES>
C1=CC=C2C(=C1)NC3=C(C=CC(=C3)C4=C(C=NC=C4)Cl)C(=O)N2

> <PUBCHEM_CACTVS_TPSA>
54

> <PUBCHEM_MONOISOTOPIC_WEIGHT>
321.0668897

> <PUBCHEM_TOTAL_CHARGE>
0

> <PUBCHEM_HEAVY_ATOM_COUNT>
23

> <PUBCHEM_ATOM_DEF_STEREO_COUNT>
0

> <PUBCHEM_ATOM_UDEF_STEREO_COUNT>
0

> <PUBCHEM_BOND_DEF_STEREO_COUNT>
0

> <PUBCHEM_BOND_UDEF_STEREO_COUNT>
0

> <PUBCHEM_ISOTOPIC_ATOM_COUNT>
0

> <PUBCHEM_COMPONENT_COUNT>
1

> <PUBCHEM_CACTVS_TAUTO_COUNT>
-1

> <PUBCHEM_COORDINATE_TYPE>
1
5
255

> <PUBCHEM_BONDANNOTATIONS>
11  17  8
12  14  8
15  20  8
15  21  8
16  18  8
17  19  8
18  19  8
20  22  8
21  23  8
5  22  8
5  23  8
6  10  8
6  7  8
7  12  8
8  11  8
8  16  8
9  10  8
9  14  8

$$$$
