49830954
  -OEChem-03202504302D

 36 37  0     0  0  0  0  0  0999 V2000
    3.8366    0.6685    0.0000 S   0  0  0  0  0  0  0  0  0  0  0  0
    2.0000   -0.3261    0.0000 O   0  0  0  0  0  0  0  0  0  0  0  0
    5.2215    1.7899    0.0000 N   0  0  0  0  0  0  0  0  0  0  0  0
    5.3147    0.0103    0.0000 N   0  0  0  0  0  0  0  0  0  0  0  0
    4.8535   -1.7110    0.0000 N   0  0  0  0  0  0  0  0  0  0  0  0
    6.6227    2.8080    0.0000 C   0  0  0  0  0  0  0  0  0  0  0  0
    6.2160    1.8944    0.0000 C   0  0  0  0  0  0  0  0  0  0  0  0
    7.6172    2.9125    0.0000 C   0  0  0  0  0  0  0  0  0  0  0  0
    4.8147    0.8764    0.0000 C   0  0  0  0  0  0  0  0  0  0  0  0
    8.0240    3.8261    0.0000 C   0  0  0  0  0  0  0  0  0  0  0  0
    3.7320   -0.3261    0.0000 C   0  0  0  0  0  0  0  0  0  0  0  0
    4.6456   -0.7328    0.0000 C   0  0  0  0  0  0  0  0  0  0  0  0
    2.8660   -0.8261    0.0000 C   0  0  0  0  0  0  0  0  0  0  0  0
    2.8660   -1.8261    0.0000 C   0  0  0  0  0  0  0  0  0  0  0  0
    2.0000   -2.3261    0.0000 C   0  0  0  0  0  0  0  0  0  0  0  0
    3.7320   -2.3261    0.0000 C   0  0  0  0  0  0  0  0  0  0  0  0
    2.0000   -3.3261    0.0000 C   0  0  0  0  0  0  0  0  0  0  0  0
    3.7320   -3.3261    0.0000 C   0  0  0  0  0  0  0  0  0  0  0  0
    2.8660   -3.8261    0.0000 C   0  0  0  0  0  0  0  0  0  0  0  0
    6.6660    3.4265    0.0000 H   0  0  0  0  0  0  0  0  0  0  0  0
    6.0211    2.9580    0.0000 H   0  0  0  0  0  0  0  0  0  0  0  0
    6.1727    1.2760    0.0000 H   0  0  0  0  0  0  0  0  0  0  0  0
    6.8176    1.7444    0.0000 H   0  0  0  0  0  0  0  0  0  0  0  0
    7.5740    2.2940    0.0000 H   0  0  0  0  0  0  0  0  0  0  0  0
    8.2188    2.7625    0.0000 H   0  0  0  0  0  0  0  0  0  0  0  0
    4.8570    2.2915    0.0000 H   0  0  0  0  0  0  0  0  0  0  0  0
    8.5904    3.5739    0.0000 H   0  0  0  0  0  0  0  0  0  0  0  0
    8.2762    4.3925    0.0000 H   0  0  0  0  0  0  0  0  0  0  0  0
    7.4576    4.0782    0.0000 H   0  0  0  0  0  0  0  0  0  0  0  0
    1.4631   -2.0161    0.0000 H   0  0  0  0  0  0  0  0  0  0  0  0
    4.2690   -2.0161    0.0000 H   0  0  0  0  0  0  0  0  0  0  0  0
    5.4432   -1.9025    0.0000 H   0  0  0  0  0  0  0  0  0  0  0  0
    4.3928   -2.1258    0.0000 H   0  0  0  0  0  0  0  0  0  0  0  0
    1.4631   -3.6361    0.0000 H   0  0  0  0  0  0  0  0  0  0  0  0
    4.2690   -3.6361    0.0000 H   0  0  0  0  0  0  0  0  0  0  0  0
    2.8660   -4.4461    0.0000 H   0  0  0  0  0  0  0  0  0  0  0  0
  1  9  1  0  0  0  0
  1 11  1  0  0  0  0
  2 13  2  0  0  0  0
  3  7  1  0  0  0  0
  3  9  1  0  0  0  0
  3 26  1  0  0  0  0
  4  9  2  0  0  0  0
  4 12  1  0  0  0  0
  5 12  1  0  0  0  0
  5 32  1  0  0  0  0
  5 33  1  0  0  0  0
  6  7  1  0  0  0  0
  6  8  1  0  0  0  0
  6 20  1  0  0  0  0
  6 21  1  0  0  0  0
  7 22  1  0  0  0  0
  7 23  1  0  0  0  0
  8 10  1  0  0  0  0
  8 24  1  0  0  0  0
  8 25  1  0  0  0  0
 10 27  1  0  0  0  0
 10 28  1  0  0  0  0
 10 29  1  0  0  0  0
 11 12  2  0  0  0  0
 11 13  1  0  0  0  0
 13 14  1  0  0  0  0
 14 15  2  0  0  0  0
 14 16  1  0  0  0  0
 15 17  1  0  0  0  0
 15 30  1  0  0  0  0
 16 18  2  0  0  0  0
 16 31  1  0  0  0  0
 17 19  2  0  0  0  0
 17 34  1  0  0  0  0
 18 19  1  0  0  0  0
 18 35  1  0  0  0  0
 19 36  1  0  0  0  0
M  END
> <PUBCHEM_COMPOUND_CID>
49830954

> <PUBCHEM_COMPOUND_CANONICALIZED>
1

> <PUBCHEM_CACTVS_COMPLEXITY>
294

> <PUBCHEM_CACTVS_HBOND_ACCEPTOR>
5

> <PUBCHEM_CACTVS_HBOND_DONOR>
2

> <PUBCHEM_CACTVS_ROTATABLE_BOND>
6

> <PUBCHEM_CACTVS_SUBSKEYS>
AAADceBzIABAAAAAAAAAAAAAAAAAAWAAAAAwAAAAAAAAAAABwAAAHgQQAAAADATB2gQzsZLIEAisAqJyZAAC8KllCDkJmIUoQMiIIDrgnRCEIYAokAJIyecYiICOAAAAAAAAAAAAAAAAAAAAAAAAAAAAAA==

> <PUBCHEM_IUPAC_OPENEYE_NAME>
[4-amino-2-(butylamino)thiazol-5-yl]-phenyl-methanone

> <PUBCHEM_IUPAC_CAS_NAME>
[4-amino-2-(butylamino)-5-thiazolyl]-phenylmethanone

> <PUBCHEM_IUPAC_NAME_MARKUP>
[4-amino-2-(butylamino)-1,3-thiazol-5-yl]-phenylmethanone

> <PUBCHEM_IUPAC_NAME>
[4-amino-2-(butylamino)-1,3-thiazol-5-yl]-phenylmethanone

> <PUBCHEM_IUPAC_SYSTEMATIC_NAME>
[4-azanyl-2-(butylamino)-1,3-thiazol-5-yl]-phenyl-methanone

> <PUBCHEM_IUPAC_TRADITIONAL_NAME>
[4-amino-2-(butylamino)thiazol-5-yl]-phenyl-methanone

> <PUBCHEM_IUPAC_INCHI>
InChI=1S/C14H17N3OS/c1-2-3-9-16-14-17-13(15)12(19-14)11(18)10-7-5-4-6-8-10/h4-8H,2-3,9,15H2,1H3,(H,16,17)

> <PUBCHEM_IUPAC_INCHIKEY>
JGBCLJZMLUMHOO-UHFFFAOYSA-N

> <PUBCHEM_XLOGP3_AA>
4.4

> <PUBCHEM_EXACT_MASS>
275.10923335

> <PUBCHEM_MOLECULAR_FORMULA>
C14H17N3OS

> <PUBCHEM_MOLECULAR_WEIGHT>
275.37

> <PUBCHEM_SMILES>
CCCCNC1=NC(=C(S1)C(=O)C2=CC=CC=C2)N

> <PUBCHEM_OPENEYE_CAN_SMILES>
CCCCNC1=NC(=C(S1)C(=O)C2=CC=CC=C2)N

> <PUBCHEM_OPENEYE_ISO_SMILES>
CCCCNC1=NC(=C(S1)C(=O)C2=CC=CC=C2)N

> <PUBCHEM_CACTVS_TPSA>
96.3

> <PUBCHEM_MONOISOTOPIC_WEIGHT>
275.10923335

> <PUBCHEM_TOTAL_CHARGE>
0

> <PUBCHEM_HEAVY_ATOM_COUNT>
19

> <PUBCHEM_ATOM_DEF_STEREO_COUNT>
0

> <PUBCHEM_ATOM_UDEF_STEREO_COUNT>
0

> <PUBCHEM_BOND_DEF_STEREO_COUNT>
0

> <PUBCHEM_BOND_UDEF_STEREO_COUNT>
0

> <PUBCHEM_ISOTOPIC_ATOM_COUNT>
0

> <PUBCHEM_COMPONENT_COUNT>
1

> <PUBCHEM_CACTVS_TAUTO_COUNT>
-1

> <PUBCHEM_COORDINATE_TYPE>
1
5
255

> <PUBCHEM_BONDANNOTATIONS>
1  11  8
1  9  8
11  12  8
14  15  8
14  16  8
15  17  8
16  18  8
17  19  8
18  19  8
4  12  8
4  9  8

$$$$
