6455415
  -OEChem-03202504072D

 28 30  0     0  0  0  0  0  0999 V2000
    4.5981    3.2500    0.0000 F   0  0  0  0  0  0  0  0  0  0  0  0
    3.7320   -0.2500    0.0000 N   0  0  0  0  0  0  0  0  0  0  0  0
    5.5443   -1.4453    0.0000 N   0  0  0  0  0  0  0  0  0  0  0  0
    2.8660   -1.7500    0.0000 N   0  0  0  0  0  0  0  0  0  0  0  0
    5.5443   -3.0547    0.0000 N   0  0  0  0  0  0  0  0  0  0  0  0
    3.7320   -3.2500    0.0000 N   0  0  0  0  0  0  0  0  0  0  0  0
    2.8660    0.2500    0.0000 C   0  0  0  0  0  0  0  0  0  0  0  0
    4.5981   -1.7500    0.0000 C   0  0  0  0  0  0  0  0  0  0  0  0
    3.7320   -1.2500    0.0000 C   0  0  0  0  0  0  0  0  0  0  0  0
    2.8660    1.2500    0.0000 C   0  0  0  0  0  0  0  0  0  0  0  0
    4.5981   -2.7500    0.0000 C   0  0  0  0  0  0  0  0  0  0  0  0
    3.7320    1.7500    0.0000 C   0  0  0  0  0  0  0  0  0  0  0  0
    2.0000    1.7500    0.0000 C   0  0  0  0  0  0  0  0  0  0  0  0
    6.1279   -2.2500    0.0000 C   0  0  0  0  0  0  0  0  0  0  0  0
    3.7320    2.7500    0.0000 C   0  0  0  0  0  0  0  0  0  0  0  0
    2.0000    2.7500    0.0000 C   0  0  0  0  0  0  0  0  0  0  0  0
    2.8660   -2.7500    0.0000 C   0  0  0  0  0  0  0  0  0  0  0  0
    2.8660    3.2500    0.0000 C   0  0  0  0  0  0  0  0  0  0  0  0
    2.2554    0.3577    0.0000 H   0  0  0  0  0  0  0  0  0  0  0  0
    2.6540   -0.3326    0.0000 H   0  0  0  0  0  0  0  0  0  0  0  0
    4.2690    0.0600    0.0000 H   0  0  0  0  0  0  0  0  0  0  0  0
    5.7369   -0.8559    0.0000 H   0  0  0  0  0  0  0  0  0  0  0  0
    4.2690    1.4400    0.0000 H   0  0  0  0  0  0  0  0  0  0  0  0
    1.4631    1.4400    0.0000 H   0  0  0  0  0  0  0  0  0  0  0  0
    6.7479   -2.2500    0.0000 H   0  0  0  0  0  0  0  0  0  0  0  0
    1.4631    3.0600    0.0000 H   0  0  0  0  0  0  0  0  0  0  0  0
    2.3291   -3.0600    0.0000 H   0  0  0  0  0  0  0  0  0  0  0  0
    2.8660    3.8700    0.0000 H   0  0  0  0  0  0  0  0  0  0  0  0
  1 15  1  0  0  0  0
  2  7  1  0  0  0  0
  2  9  1  0  0  0  0
  2 21  1  0  0  0  0
  3  8  1  0  0  0  0
  3 14  1  0  0  0  0
  3 22  1  0  0  0  0
  4  9  2  0  0  0  0
  4 17  1  0  0  0  0
  5 11  1  0  0  0  0
  5 14  2  0  0  0  0
  6 11  1  0  0  0  0
  6 17  2  0  0  0  0
  7 10  1  0  0  0  0
  7 19  1  0  0  0  0
  7 20  1  0  0  0  0
  8  9  1  0  0  0  0
  8 11  2  0  0  0  0
 10 12  2  0  0  0  0
 10 13  1  0  0  0  0
 12 15  1  0  0  0  0
 12 23  1  0  0  0  0
 13 16  2  0  0  0  0
 13 24  1  0  0  0  0
 14 25  1  0  0  0  0
 15 18  2  0  0  0  0
 16 18  1  0  0  0  0
 16 26  1  0  0  0  0
 17 27  1  0  0  0  0
 18 28  1  0  0  0  0
M  END
> <PUBCHEM_COMPOUND_CID>
6455415

> <PUBCHEM_COMPOUND_CANONICALIZED>
1

> <PUBCHEM_CACTVS_COMPLEXITY>
277

> <PUBCHEM_CACTVS_HBOND_ACCEPTOR>
5

> <PUBCHEM_CACTVS_HBOND_DONOR>
2

> <PUBCHEM_CACTVS_ROTATABLE_BOND>
3

> <PUBCHEM_CACTVS_SUBSKEYS>
AAADccBzgQAAAAAAAAAAAAAAAAAAAWAAAAA8QAAAAAAAAFgB/AAAHQAQAAAADAjBHww18L7JkACgAyZjZACCgC2xEKAJ2aAoVJiIaCLA2VGUJAhogALIiCcQgAAOAAAAAAAAAAAAAAAAAAAAAAAAAAAAAA==

> <PUBCHEM_IUPAC_OPENEYE_NAME>
N-[(3-fluorophenyl)methyl]-7H-purin-6-amine

> <PUBCHEM_IUPAC_CAS_NAME>
N-[(3-fluorophenyl)methyl]-7H-purin-6-amine

> <PUBCHEM_IUPAC_NAME_MARKUP>
<I>N</I>-[(3-fluorophenyl)methyl]-7<I>H</I>-purin-6-amine

> <PUBCHEM_IUPAC_NAME>
N-[(3-fluorophenyl)methyl]-7H-purin-6-amine

> <PUBCHEM_IUPAC_SYSTEMATIC_NAME>
N-[(3-fluorophenyl)methyl]-7H-purin-6-amine

> <PUBCHEM_IUPAC_TRADITIONAL_NAME>
(3-fluorobenzyl)-(7H-purin-6-yl)amine

> <PUBCHEM_IUPAC_INCHI>
InChI=1S/C12H10FN5/c13-9-3-1-2-8(4-9)5-14-11-10-12(16-6-15-10)18-7-17-11/h1-4,6-7H,5H2,(H2,14,15,16,17,18)

> <PUBCHEM_IUPAC_INCHIKEY>
YCDLTWDQNHQKPG-UHFFFAOYSA-N

> <PUBCHEM_XLOGP3_AA>
2

> <PUBCHEM_EXACT_MASS>
243.09202350

> <PUBCHEM_MOLECULAR_FORMULA>
C12H10FN5

> <PUBCHEM_MOLECULAR_WEIGHT>
243.24

> <PUBCHEM_SMILES>
C1=CC(=CC(=C1)F)CNC2=NC=NC3=C2NC=N3

> <PUBCHEM_OPENEYE_CAN_SMILES>
C1=CC(=CC(=C1)F)CNC2=NC=NC3=C2NC=N3

> <PUBCHEM_OPENEYE_ISO_SMILES>
C1=CC(=CC(=C1)F)CNC2=NC=NC3=C2NC=N3

> <PUBCHEM_CACTVS_TPSA>
66.5

> <PUBCHEM_MONOISOTOPIC_WEIGHT>
243.09202350

> <PUBCHEM_TOTAL_CHARGE>
0

> <PUBCHEM_HEAVY_ATOM_COUNT>
18

> <PUBCHEM_ATOM_DEF_STEREO_COUNT>
0

> <PUBCHEM_ATOM_UDEF_STEREO_COUNT>
0

> <PUBCHEM_BOND_DEF_STEREO_COUNT>
0

> <PUBCHEM_BOND_UDEF_STEREO_COUNT>
0

> <PUBCHEM_ISOTOPIC_ATOM_COUNT>
0

> <PUBCHEM_COMPONENT_COUNT>
1

> <PUBCHEM_CACTVS_TAUTO_COUNT>
-1

> <PUBCHEM_COORDINATE_TYPE>
1
5
255

> <PUBCHEM_BONDANNOTATIONS>
10  12  8
10  13  8
12  15  8
13  16  8
15  18  8
16  18  8
3  14  8
3  8  8
4  17  8
4  9  8
5  11  8
5  14  8
6  11  8
6  17  8
8  11  8
8  9  8

$$$$
