49830582
  -OEChem-03202502162D

 34 36  0     0  0  0  0  0  0999 V2000
    2.0000   -1.9026    0.0000 F   0  0  0  0  0  0  0  0  0  0  0  0
    2.8910    1.3045    0.0000 O   0  0  0  0  0  0  0  0  0  0  0  0
    4.5981    3.0116    0.0000 O   0  0  0  0  0  0  0  0  0  0  0  0
    4.5981   -0.4026    0.0000 N   0  0  0  0  0  0  0  0  0  0  0  0
    6.3052    1.3045    0.0000 N   0  0  0  0  0  0  0  0  0  0  0  0
    7.8052    3.9026    0.0000 N   0  0  0  0  0  0  0  0  0  0  0  0
    4.5981    0.5974    0.0000 C   0  0  0  0  0  0  0  0  0  0  0  0
    5.3052    1.3045    0.0000 C   0  0  0  0  0  0  0  0  0  0  0  0
    3.7320   -0.9026    0.0000 C   0  0  0  0  0  0  0  0  0  0  0  0
    3.8910    1.3045    0.0000 C   0  0  0  0  0  0  0  0  0  0  0  0
    4.5981    2.0116    0.0000 C   0  0  0  0  0  0  0  0  0  0  0  0
    3.7320   -1.9026    0.0000 C   0  0  0  0  0  0  0  0  0  0  0  0
    6.8052    2.1705    0.0000 C   0  0  0  0  0  0  0  0  0  0  0  0
    2.8660   -2.4026    0.0000 C   0  0  0  0  0  0  0  0  0  0  0  0
    4.5981   -2.4026    0.0000 C   0  0  0  0  0  0  0  0  0  0  0  0
    2.8660   -3.4026    0.0000 C   0  0  0  0  0  0  0  0  0  0  0  0
    4.5981   -3.4026    0.0000 C   0  0  0  0  0  0  0  0  0  0  0  0
    6.3052    3.0366    0.0000 C   0  0  0  0  0  0  0  0  0  0  0  0
    7.8052    2.1705    0.0000 C   0  0  0  0  0  0  0  0  0  0  0  0
    3.7320   -3.9026    0.0000 C   0  0  0  0  0  0  0  0  0  0  0  0
    6.8052    3.9026    0.0000 C   0  0  0  0  0  0  0  0  0  0  0  0
    8.3052    3.0366    0.0000 C   0  0  0  0  0  0  0  0  0  0  0  0
    3.5200   -0.3200    0.0000 H   0  0  0  0  0  0  0  0  0  0  0  0
    3.1215   -1.0103    0.0000 H   0  0  0  0  0  0  0  0  0  0  0  0
    5.1350   -0.7126    0.0000 H   0  0  0  0  0  0  0  0  0  0  0  0
    6.6152    0.7676    0.0000 H   0  0  0  0  0  0  0  0  0  0  0  0
    5.1350   -2.0926    0.0000 H   0  0  0  0  0  0  0  0  0  0  0  0
    2.3291   -3.7126    0.0000 H   0  0  0  0  0  0  0  0  0  0  0  0
    5.1350   -3.7126    0.0000 H   0  0  0  0  0  0  0  0  0  0  0  0
    5.6852    3.0366    0.0000 H   0  0  0  0  0  0  0  0  0  0  0  0
    8.1152    1.6336    0.0000 H   0  0  0  0  0  0  0  0  0  0  0  0
    3.7320   -4.5226    0.0000 H   0  0  0  0  0  0  0  0  0  0  0  0
    6.4952    4.4395    0.0000 H   0  0  0  0  0  0  0  0  0  0  0  0
    8.9252    3.0366    0.0000 H   0  0  0  0  0  0  0  0  0  0  0  0
  1 14  1  0  0  0  0
  2 10  2  0  0  0  0
  3 11  2  0  0  0  0
  4  7  1  0  0  0  0
  4  9  1  0  0  0  0
  4 25  1  0  0  0  0
  5  8  1  0  0  0  0
  5 13  1  0  0  0  0
  5 26  1  0  0  0  0
  6 21  2  0  0  0  0
  6 22  1  0  0  0  0
  7  8  2  0  0  0  0
  7 10  1  0  0  0  0
  8 11  1  0  0  0  0
  9 12  1  0  0  0  0
  9 23  1  0  0  0  0
  9 24  1  0  0  0  0
 10 11  1  0  0  0  0
 12 14  1  0  0  0  0
 12 15  2  0  0  0  0
 13 18  2  0  0  0  0
 13 19  1  0  0  0  0
 14 16  2  0  0  0  0
 15 17  1  0  0  0  0
 15 27  1  0  0  0  0
 16 20  1  0  0  0  0
 16 28  1  0  0  0  0
 17 20  2  0  0  0  0
 17 29  1  0  0  0  0
 18 21  1  0  0  0  0
 18 30  1  0  0  0  0
 19 22  2  0  0  0  0
 19 31  1  0  0  0  0
 20 32  1  0  0  0  0
 21 33  1  0  0  0  0
 22 34  1  0  0  0  0
M  END
> <PUBCHEM_COMPOUND_CID>
49830582

> <PUBCHEM_COMPOUND_CANONICALIZED>
1

> <PUBCHEM_CACTVS_COMPLEXITY>
486

> <PUBCHEM_CACTVS_HBOND_ACCEPTOR>
6

> <PUBCHEM_CACTVS_HBOND_DONOR>
2

> <PUBCHEM_CACTVS_ROTATABLE_BOND>
5

> <PUBCHEM_CACTVS_SUBSKEYS>
AAADccB7MQAAAAAAAAAAAAAAAABAAAAAAAA8QAAAAAAAAAABwAAAHwAQAAAADAzBmgw8wJLIEACoArR3RACCgCAxAiAI2KG4ZNgIIGrA0fGEJAhgkADIyUcQgAAOAAAAAAAAAAAAAAAAAAAAAAAAAAAAAA==

> <PUBCHEM_IUPAC_OPENEYE_NAME>
3-[(2-fluorophenyl)methylamino]-4-(4-pyridylamino)cyclobut-3-ene-1,2-dione

> <PUBCHEM_IUPAC_CAS_NAME>
3-[(2-fluorophenyl)methylamino]-4-(pyridin-4-ylamino)cyclobut-3-ene-1,2-dione

> <PUBCHEM_IUPAC_NAME_MARKUP>
3-[(2-fluorophenyl)methylamino]-4-(pyridin-4-ylamino)cyclobut-3-ene-1,2-dione

> <PUBCHEM_IUPAC_NAME>
3-[(2-fluorophenyl)methylamino]-4-(pyridin-4-ylamino)cyclobut-3-ene-1,2-dione

> <PUBCHEM_IUPAC_SYSTEMATIC_NAME>
3-[(2-fluorophenyl)methylamino]-4-(pyridin-4-ylamino)cyclobut-3-ene-1,2-dione

> <PUBCHEM_IUPAC_TRADITIONAL_NAME>
3-[(2-fluorobenzyl)amino]-4-(4-pyridylamino)cyclobut-3-ene-1,2-quinone

> <PUBCHEM_IUPAC_INCHI>
InChI=1S/C16H12FN3O2/c17-12-4-2-1-3-10(12)9-19-13-14(16(22)15(13)21)20-11-5-7-18-8-6-11/h1-8,19H,9H2,(H,18,20)

> <PUBCHEM_IUPAC_INCHIKEY>
GPKQGYSDQQIJLW-UHFFFAOYSA-N

> <PUBCHEM_XLOGP3_AA>
2

> <PUBCHEM_EXACT_MASS>
297.09135480

> <PUBCHEM_MOLECULAR_FORMULA>
C16H12FN3O2

> <PUBCHEM_MOLECULAR_WEIGHT>
297.28

> <PUBCHEM_SMILES>
C1=CC=C(C(=C1)CNC2=C(C(=O)C2=O)NC3=CC=NC=C3)F

> <PUBCHEM_OPENEYE_CAN_SMILES>
C1=CC=C(C(=C1)CNC2=C(C(=O)C2=O)NC3=CC=NC=C3)F

> <PUBCHEM_OPENEYE_ISO_SMILES>
C1=CC=C(C(=C1)CNC2=C(C(=O)C2=O)NC3=CC=NC=C3)F

> <PUBCHEM_CACTVS_TPSA>
71.1

> <PUBCHEM_MONOISOTOPIC_WEIGHT>
297.09135480

> <PUBCHEM_TOTAL_CHARGE>
0

> <PUBCHEM_HEAVY_ATOM_COUNT>
22

> <PUBCHEM_ATOM_DEF_STEREO_COUNT>
0

> <PUBCHEM_ATOM_UDEF_STEREO_COUNT>
0

> <PUBCHEM_BOND_DEF_STEREO_COUNT>
0

> <PUBCHEM_BOND_UDEF_STEREO_COUNT>
0

> <PUBCHEM_ISOTOPIC_ATOM_COUNT>
0

> <PUBCHEM_COMPONENT_COUNT>
1

> <PUBCHEM_CACTVS_TAUTO_COUNT>
-1

> <PUBCHEM_COORDINATE_TYPE>
1
5
255

> <PUBCHEM_BONDANNOTATIONS>
10  11  8
12  14  8
12  15  8
13  18  8
13  19  8
14  16  8
15  17  8
16  20  8
17  20  8
18  21  8
19  22  8
6  21  8
6  22  8
7  10  8
7  8  8
8  11  8

$$$$
