136027068
  -OEChem-03202504312D

 37 41  0     0  0  0  0  0  0999 V2000
    8.9989   -0.2387    0.0000 S   0  0  0  0  0  0  0  0  0  0  0  0
    7.3958    2.9284    0.0000 O   0  0  0  0  0  0  0  0  0  0  0  0
    6.5298    1.4284    0.0000 N   0  0  0  0  0  0  0  0  0  0  0  0
    8.2619    1.4284    0.0000 N   0  0  0  0  0  0  0  0  0  0  0  0
    5.5836    0.1236    0.0000 N   0  0  0  0  0  0  0  0  0  0  0  0
    5.5836    1.7331    0.0000 N   0  0  0  0  0  0  0  0  0  0  0  0
    7.6051   -1.0434    0.0000 C   0  0  0  0  0  0  0  0  0  0  0  0
    6.9843   -1.8722    0.0000 C   0  0  0  0  0  0  0  0  0  0  0  0
    7.3990   -2.8210    0.0000 C   0  0  0  0  0  0  0  0  0  0  0  0
    8.4289   -2.9284    0.0000 C   0  0  0  0  0  0  0  0  0  0  0  0
    8.5938   -1.1465    0.0000 C   0  0  0  0  0  0  0  0  0  0  0  0
    9.0303   -2.0855    0.0000 C   0  0  0  0  0  0  0  0  0  0  0  0
    7.3958   -0.0716    0.0000 C   0  0  0  0  0  0  0  0  0  0  0  0
    8.2619    0.4284    0.0000 C   0  0  0  0  0  0  0  0  0  0  0  0
    6.5298    0.4284    0.0000 C   0  0  0  0  0  0  0  0  0  0  0  0
    7.3958    1.9284    0.0000 C   0  0  0  0  0  0  0  0  0  0  0  0
    5.0000    0.9284    0.0000 C   0  0  0  0  0  0  0  0  0  0  0  0
    4.0000    0.9284    0.0000 C   0  0  0  0  0  0  0  0  0  0  0  0
    3.5000    1.7944    0.0000 C   0  0  0  0  0  0  0  0  0  0  0  0
    3.5000    0.0623    0.0000 C   0  0  0  0  0  0  0  0  0  0  0  0
    2.5000    1.7944    0.0000 C   0  0  0  0  0  0  0  0  0  0  0  0
    2.5000    0.0623    0.0000 C   0  0  0  0  0  0  0  0  0  0  0  0
    2.0000    0.9284    0.0000 C   0  0  0  0  0  0  0  0  0  0  0  0
    6.5590   -1.4211    0.0000 H   0  0  0  0  0  0  0  0  0  0  0  0
    6.4671   -2.2141    0.0000 H   0  0  0  0  0  0  0  0  0  0  0  0
    6.7968   -2.9684    0.0000 H   0  0  0  0  0  0  0  0  0  0  0  0
    7.4412   -3.4396    0.0000 H   0  0  0  0  0  0  0  0  0  0  0  0
    8.2600   -3.5249    0.0000 H   0  0  0  0  0  0  0  0  0  0  0  0
    8.9877   -3.1968    0.0000 H   0  0  0  0  0  0  0  0  0  0  0  0
    9.4659   -2.5266    0.0000 H   0  0  0  0  0  0  0  0  0  0  0  0
    9.5395   -1.7318    0.0000 H   0  0  0  0  0  0  0  0  0  0  0  0
    8.7988    1.7384    0.0000 H   0  0  0  0  0  0  0  0  0  0  0  0
    3.8100    2.3313    0.0000 H   0  0  0  0  0  0  0  0  0  0  0  0
    3.8100   -0.4746    0.0000 H   0  0  0  0  0  0  0  0  0  0  0  0
    2.1900    2.3313    0.0000 H   0  0  0  0  0  0  0  0  0  0  0  0
    2.1900   -0.4746    0.0000 H   0  0  0  0  0  0  0  0  0  0  0  0
    1.3800    0.9284    0.0000 H   0  0  0  0  0  0  0  0  0  0  0  0
  1 11  1  0  0  0  0
  1 14  1  0  0  0  0
  2 16  2  0  0  0  0
  3  6  1  0  0  0  0
  3 15  1  0  0  0  0
  3 16  1  0  0  0  0
  4 14  1  0  0  0  0
  4 16  1  0  0  0  0
  4 32  1  0  0  0  0
  5 15  2  0  0  0  0
  5 17  1  0  0  0  0
  6 17  2  0  0  0  0
  7  8  1  0  0  0  0
  7 11  2  0  0  0  0
  7 13  1  0  0  0  0
  8  9  1  0  0  0  0
  8 24  1  0  0  0  0
  8 25  1  0  0  0  0
  9 10  1  0  0  0  0
  9 26  1  0  0  0  0
  9 27  1  0  0  0  0
 10 12  1  0  0  0  0
 10 28  1  0  0  0  0
 10 29  1  0  0  0  0
 11 12  1  0  0  0  0
 12 30  1  0  0  0  0
 12 31  1  0  0  0  0
 13 14  2  0  0  0  0
 13 15  1  0  0  0  0
 17 18  1  0  0  0  0
 18 19  2  0  0  0  0
 18 20  1  0  0  0  0
 19 21  1  0  0  0  0
 19 33  1  0  0  0  0
 20 22  2  0  0  0  0
 20 34  1  0  0  0  0
 21 23  2  0  0  0  0
 21 35  1  0  0  0  0
 22 23  1  0  0  0  0
 22 36  1  0  0  0  0
 23 37  1  0  0  0  0
M  END
> <PUBCHEM_COMPOUND_CID>
136027068

> <PUBCHEM_COMPOUND_CANONICALIZED>
1

> <PUBCHEM_CACTVS_COMPLEXITY>
483

> <PUBCHEM_CACTVS_HBOND_ACCEPTOR>
4

> <PUBCHEM_CACTVS_HBOND_DONOR>
1

> <PUBCHEM_CACTVS_ROTATABLE_BOND>
1

> <PUBCHEM_CACTVS_SUBSKEYS>
AAADccB7oABAAAAAAAAAAAAAAAAAAWJAAAA8YIAAAAAAAFgB8AAAHgQYAAAADACBWwAxkYbIEAiuAiJidACTgIthCLkfiDAgRJiIKKLg2ZGEIAh4jQLoyCcQgMAOgAAAAAAAAAAAAAAAAAgAAAAAAAAAAA==

> <PUBCHEM_IUPAC_OPENEYE_NAME>
4-phenyl-10-thia-3,5,6,8-tetrazatetracyclo[7.7.0.02,6.011,16]hexadeca-1(9),2,4,11(16)-tetraen-7-one

> <PUBCHEM_IUPAC_CAS_NAME>
4-phenyl-10-thia-3,5,6,8-tetrazatetracyclo[7.7.0.02,6.011,16]hexadeca-1(9),2,4,11(16)-tetraen-7-one

> <PUBCHEM_IUPAC_NAME_MARKUP>
4-phenyl-10-thia-3,5,6,8-tetrazatetracyclo[7.7.0.0<SUP>2,6</SUP>.0<SUP>11,16</SUP>]hexadeca-1(9),2,4,11(16)-tetraen-7-one

> <PUBCHEM_IUPAC_NAME>
4-phenyl-10-thia-3,5,6,8-tetrazatetracyclo[7.7.0.02,6.011,16]hexadeca-1(9),2,4,11(16)-tetraen-7-one

> <PUBCHEM_IUPAC_SYSTEMATIC_NAME>
4-phenyl-10-thia-3,5,6,8-tetrazatetracyclo[7.7.0.02,6.011,16]hexadeca-1(9),2,4,11(16)-tetraen-7-one

> <PUBCHEM_IUPAC_TRADITIONAL_NAME>
4-phenyl-10-thia-3,5,6,8-tetrazatetracyclo[7.7.0.02,6.011,16]hexadeca-1(9),2,4,11(16)-tetraen-7-one

> <PUBCHEM_IUPAC_INCHI>
InChI=1S/C17H14N4OS/c22-17-19-16-13(11-8-4-5-9-12(11)23-16)15-18-14(20-21(15)17)10-6-2-1-3-7-10/h1-3,6-7H,4-5,8-9H2,(H,19,22)

> <PUBCHEM_IUPAC_INCHIKEY>
ZVGVJHARPQUYQS-UHFFFAOYSA-N

> <PUBCHEM_XLOGP3_AA>
3.9

> <PUBCHEM_EXACT_MASS>
322.08883226

> <PUBCHEM_MOLECULAR_FORMULA>
C17H14N4OS

> <PUBCHEM_MOLECULAR_WEIGHT>
322.4

> <PUBCHEM_SMILES>
C1CCC2=C(C1)C3=C(S2)NC(=O)N4C3=NC(=N4)C5=CC=CC=C5

> <PUBCHEM_OPENEYE_CAN_SMILES>
C1CCC2=C(C1)C3=C(S2)NC(=O)N4C3=NC(=N4)C5=CC=CC=C5

> <PUBCHEM_OPENEYE_ISO_SMILES>
C1CCC2=C(C1)C3=C(S2)NC(=O)N4C3=NC(=N4)C5=CC=CC=C5

> <PUBCHEM_CACTVS_TPSA>
88.1

> <PUBCHEM_MONOISOTOPIC_WEIGHT>
322.08883226

> <PUBCHEM_TOTAL_CHARGE>
0

> <PUBCHEM_HEAVY_ATOM_COUNT>
23

> <PUBCHEM_ATOM_DEF_STEREO_COUNT>
0

> <PUBCHEM_ATOM_UDEF_STEREO_COUNT>
0

> <PUBCHEM_BOND_DEF_STEREO_COUNT>
0

> <PUBCHEM_BOND_UDEF_STEREO_COUNT>
0

> <PUBCHEM_ISOTOPIC_ATOM_COUNT>
0

> <PUBCHEM_COMPONENT_COUNT>
1

> <PUBCHEM_CACTVS_TAUTO_COUNT>
-1

> <PUBCHEM_COORDINATE_TYPE>
1
5
255

> <PUBCHEM_BONDANNOTATIONS>
1  11  8
1  14  8
13  14  8
13  15  8
18  19  8
18  20  8
19  21  8
20  22  8
21  23  8
22  23  8
3  15  8
3  16  8
3  6  8
4  14  8
4  16  8
5  15  8
5  17  8
6  17  8
7  11  8
7  13  8

$$$$
