11590363
  -OEChem-03202504422D

 51 52  0     0  0  0  0  0  0999 V2000
    2.5369   -3.0000    0.0000 Cl  0  0  0  0  0  0  0  0  0  0  0  0
    6.8671    4.5000    0.0000 S   0  0  0  0  0  0  0  0  0  0  0  0
    8.5991    1.5000    0.0000 O   0  0  0  0  0  0  0  0  0  0  0  0
    5.1350    3.5000    0.0000 O   0  0  0  0  0  0  0  0  0  0  0  0
    7.8671    4.5000    0.0000 O   0  0  0  0  0  0  0  0  0  0  0  0
    5.8671    4.5000    0.0000 O   0  0  0  0  0  0  0  0  0  0  0  0
    5.1350    0.5000    0.0000 O   0  0  0  0  0  0  0  0  0  0  0  0
    4.2690   -4.0000    0.0000 O   0  0  0  0  0  0  0  0  0  0  0  0
    6.0010   -1.0000    0.0000 N   0  0  0  0  0  0  0  0  0  0  0  0
    5.1350   -2.5000    0.0000 N   0  0  0  0  0  0  0  0  0  0  0  0
    2.5369   -1.0000    0.0000 N   0  0  0  0  0  0  0  0  0  0  0  0
    6.8671    1.5000    0.0000 C   0  0  0  0  0  0  0  0  0  0  0  0
    6.8671    3.5000    0.0000 C   0  0  0  0  0  0  0  0  0  0  0  0
    7.7331    2.0000    0.0000 C   0  0  0  0  0  0  0  0  0  0  0  0
    6.0010    3.0000    0.0000 C   0  0  0  0  0  0  0  0  0  0  0  0
    6.8671    0.5000    0.0000 C   0  0  0  0  0  0  0  0  0  0  0  0
    6.0010    2.0000    0.0000 C   0  0  0  0  0  0  0  0  0  0  0  0
    7.7331    3.0000    0.0000 C   0  0  0  0  0  0  0  0  0  0  0  0
    6.0010   -0.0000    0.0000 C   0  0  0  0  0  0  0  0  0  0  0  0
    6.8671    5.5000    0.0000 C   0  0  0  0  0  0  0  0  0  0  0  0
    5.1350   -1.5000    0.0000 C   0  0  0  0  0  0  0  0  0  0  0  0
    4.2690   -1.0000    0.0000 C   0  0  0  0  0  0  0  0  0  0  0  0
    9.4651    2.0000    0.0000 C   0  0  0  0  0  0  0  0  0  0  0  0
    4.2690    3.0000    0.0000 C   0  0  0  0  0  0  0  0  0  0  0  0
    3.4030   -1.5000    0.0000 C   0  0  0  0  0  0  0  0  0  0  0  0
    4.2690   -3.0000    0.0000 C   0  0  0  0  0  0  0  0  0  0  0  0
    3.4030   -2.5000    0.0000 C   0  0  0  0  0  0  0  0  0  0  0  0
    5.1350   -4.5000    0.0000 C   0  0  0  0  0  0  0  0  0  0  0  0
    5.1350   -5.5000    0.0000 C   0  0  0  0  0  0  0  0  0  0  0  0
    7.0791   -0.0826    0.0000 H   0  0  0  0  0  0  0  0  0  0  0  0
    7.4776    0.6077    0.0000 H   0  0  0  0  0  0  0  0  0  0  0  0
    5.4641    1.6900    0.0000 H   0  0  0  0  0  0  0  0  0  0  0  0
    8.2700    3.3100    0.0000 H   0  0  0  0  0  0  0  0  0  0  0  0
    7.4871    5.5000    0.0000 H   0  0  0  0  0  0  0  0  0  0  0  0
    6.8671    6.1200    0.0000 H   0  0  0  0  0  0  0  0  0  0  0  0
    6.2471    5.5000    0.0000 H   0  0  0  0  0  0  0  0  0  0  0  0
    6.5380   -1.3100    0.0000 H   0  0  0  0  0  0  0  0  0  0  0  0
    4.2690   -0.3800    0.0000 H   0  0  0  0  0  0  0  0  0  0  0  0
    9.7751    1.4631    0.0000 H   0  0  0  0  0  0  0  0  0  0  0  0
   10.0021    2.3100    0.0000 H   0  0  0  0  0  0  0  0  0  0  0  0
    9.1551    2.5369    0.0000 H   0  0  0  0  0  0  0  0  0  0  0  0
    3.9590    3.5369    0.0000 H   0  0  0  0  0  0  0  0  0  0  0  0
    3.7320    2.6900    0.0000 H   0  0  0  0  0  0  0  0  0  0  0  0
    4.5790    2.4631    0.0000 H   0  0  0  0  0  0  0  0  0  0  0  0
    5.7456   -4.6077    0.0000 H   0  0  0  0  0  0  0  0  0  0  0  0
    5.3471   -3.9174    0.0000 H   0  0  0  0  0  0  0  0  0  0  0  0
    2.0000   -1.3100    0.0000 H   0  0  0  0  0  0  0  0  0  0  0  0
    2.5369   -0.3800    0.0000 H   0  0  0  0  0  0  0  0  0  0  0  0
    4.5150   -5.5000    0.0000 H   0  0  0  0  0  0  0  0  0  0  0  0
    5.1350   -6.1200    0.0000 H   0  0  0  0  0  0  0  0  0  0  0  0
    5.7550   -5.5000    0.0000 H   0  0  0  0  0  0  0  0  0  0  0  0
  1 27  1  0  0  0  0
  2  5  2  0  0  0  0
  2  6  2  0  0  0  0
  2 13  1  0  0  0  0
  2 20  1  0  0  0  0
  3 14  1  0  0  0  0
  3 23  1  0  0  0  0
  4 15  1  0  0  0  0
  4 24  1  0  0  0  0
  7 19  2  0  0  0  0
  8 26  1  0  0  0  0
  8 28  1  0  0  0  0
  9 19  1  0  0  0  0
  9 21  1  0  0  0  0
  9 37  1  0  0  0  0
 10 21  2  0  0  0  0
 10 26  1  0  0  0  0
 11 25  1  0  0  0  0
 11 47  1  0  0  0  0
 11 48  1  0  0  0  0
 12 14  1  0  0  0  0
 12 16  1  0  0  0  0
 12 17  2  0  0  0  0
 13 15  2  0  0  0  0
 13 18  1  0  0  0  0
 14 18  2  0  0  0  0
 15 17  1  0  0  0  0
 16 19  1  0  0  0  0
 16 30  1  0  0  0  0
 16 31  1  0  0  0  0
 17 32  1  0  0  0  0
 18 33  1  0  0  0  0
 20 34  1  0  0  0  0
 20 35  1  0  0  0  0
 20 36  1  0  0  0  0
 21 22  1  0  0  0  0
 22 25  2  0  0  0  0
 22 38  1  0  0  0  0
 23 39  1  0  0  0  0
 23 40  1  0  0  0  0
 23 41  1  0  0  0  0
 24 42  1  0  0  0  0
 24 43  1  0  0  0  0
 24 44  1  0  0  0  0
 25 27  1  0  0  0  0
 26 27  2  0  0  0  0
 28 29  1  0  0  0  0
 28 45  1  0  0  0  0
 28 46  1  0  0  0  0
 29 49  1  0  0  0  0
 29 50  1  0  0  0  0
 29 51  1  0  0  0  0
M  END
> <PUBCHEM_COMPOUND_CID>
11590363

> <PUBCHEM_COMPOUND_CANONICALIZED>
1

> <PUBCHEM_CACTVS_COMPLEXITY>
646

> <PUBCHEM_CACTVS_HBOND_ACCEPTOR>
8

> <PUBCHEM_CACTVS_HBOND_DONOR>
2

> <PUBCHEM_CACTVS_ROTATABLE_BOND>
8

> <PUBCHEM_CACTVS_SUBSKEYS>
AAADceB7OABEAAAAAAAAAAAAAAAAAAAAAAA8QAAAAAAAAAABwAAAHgYQAAAADA6h2iKz95LIFAqoAidydHDCiCkhLnABmDs2b5iMJnPl/9vOPCju1RvI6Cf63LLOEQABBAAIIAAiAAIIABBAAAAAAAAAAA==

> <PUBCHEM_IUPAC_OPENEYE_NAME>
N-(4-amino-5-chloro-6-ethoxy-2-pyridyl)-2-(2,5-dimethoxy-4-methylsulfonyl-phenyl)acetamide

> <PUBCHEM_IUPAC_CAS_NAME>
N-(4-amino-5-chloro-6-ethoxy-2-pyridinyl)-2-(2,5-dimethoxy-4-methylsulfonylphenyl)acetamide

> <PUBCHEM_IUPAC_NAME_MARKUP>
<I>N</I>-(4-amino-5-chloro-6-ethoxypyridin-2-yl)-2-(2,5-dimethoxy-4-methylsulfonylphenyl)acetamide

> <PUBCHEM_IUPAC_NAME>
N-(4-amino-5-chloro-6-ethoxypyridin-2-yl)-2-(2,5-dimethoxy-4-methylsulfonylphenyl)acetamide

> <PUBCHEM_IUPAC_SYSTEMATIC_NAME>
N-(4-azanyl-5-chloranyl-6-ethoxy-pyridin-2-yl)-2-(2,5-dimethoxy-4-methylsulfonyl-phenyl)ethanamide

> <PUBCHEM_IUPAC_TRADITIONAL_NAME>
N-(4-amino-5-chloro-6-ethoxy-2-pyridyl)-2-(4-mesyl-2,5-dimethoxy-phenyl)acetamide

> <PUBCHEM_IUPAC_INCHI>
InChI=1S/C18H22ClN3O6S/c1-5-28-18-17(19)11(20)8-15(22-18)21-16(23)7-10-6-13(27-3)14(29(4,24)25)9-12(10)26-2/h6,8-9H,5,7H2,1-4H3,(H3,20,21,22,23)

> <PUBCHEM_IUPAC_INCHIKEY>
JUKUQWGWZSESAV-UHFFFAOYSA-N

> <PUBCHEM_XLOGP3_AA>
1.8

> <PUBCHEM_EXACT_MASS>
443.0917843

> <PUBCHEM_MOLECULAR_FORMULA>
C18H22ClN3O6S

> <PUBCHEM_MOLECULAR_WEIGHT>
443.9

> <PUBCHEM_SMILES>
CCOC1=C(C(=CC(=N1)NC(=O)CC2=CC(=C(C=C2OC)S(=O)(=O)C)OC)N)Cl

> <PUBCHEM_OPENEYE_CAN_SMILES>
CCOC1=C(C(=CC(=N1)NC(=O)CC2=CC(=C(C=C2OC)S(=O)(=O)C)OC)N)Cl

> <PUBCHEM_OPENEYE_ISO_SMILES>
CCOC1=C(C(=CC(=N1)NC(=O)CC2=CC(=C(C=C2OC)S(=O)(=O)C)OC)N)Cl

> <PUBCHEM_CACTVS_TPSA>
138

> <PUBCHEM_MONOISOTOPIC_WEIGHT>
443.0917843

> <PUBCHEM_TOTAL_CHARGE>
0

> <PUBCHEM_HEAVY_ATOM_COUNT>
29

> <PUBCHEM_ATOM_DEF_STEREO_COUNT>
0

> <PUBCHEM_ATOM_UDEF_STEREO_COUNT>
0

> <PUBCHEM_BOND_DEF_STEREO_COUNT>
0

> <PUBCHEM_BOND_UDEF_STEREO_COUNT>
0

> <PUBCHEM_ISOTOPIC_ATOM_COUNT>
0

> <PUBCHEM_COMPONENT_COUNT>
1

> <PUBCHEM_CACTVS_TAUTO_COUNT>
-1

> <PUBCHEM_COORDINATE_TYPE>
1
5
255

> <PUBCHEM_BONDANNOTATIONS>
10  21  8
10  26  8
12  14  8
12  17  8
13  15  8
13  18  8
14  18  8
15  17  8
21  22  8
22  25  8
25  27  8
26  27  8

$$$$
