16086104
  -OEChem-03202506022D

 70 74  0     0  0  0  0  0  0999 V2000
    6.4641    2.5000    0.0000 F   0  0  0  0  0  0  0  0  0  0  0  0
    5.4641    3.5000    0.0000 F   0  0  0  0  0  0  0  0  0  0  0  0
    4.4641    2.5000    0.0000 F   0  0  0  0  0  0  0  0  0  0  0  0
    5.4641   -1.5000    0.0000 O   0  0  0  0  0  0  0  0  0  0  0  0
    8.0622    1.0000    0.0000 O   0  0  0  0  0  0  0  0  0  0  0  0
    2.8660   -3.0000    0.0000 N   0  0  0  0  0  0  0  0  0  0  0  0
    7.1962   -0.5000    0.0000 N   0  0  0  0  0  0  0  0  0  0  0  0
   14.1523    1.5347    0.0000 N   0  0  0  0  0  0  0  0  0  0  0  0
   15.0583   -0.0208    0.0000 N   0  0  0  0  0  0  0  0  0  0  0  0
   15.9224    1.5241    0.0000 N   0  0  0  0  0  0  0  0  0  0  0  0
    4.5981   -2.0000    0.0000 C   0  0  0  0  0  0  0  0  0  0  0  0
    4.5981   -3.0000    0.0000 C   0  0  0  0  0  0  0  0  0  0  0  0
    3.7320   -1.5000    0.0000 C   0  0  0  0  0  0  0  0  0  0  0  0
    3.7320   -3.5000    0.0000 C   0  0  0  0  0  0  0  0  0  0  0  0
    2.8660   -2.0000    0.0000 C   0  0  0  0  0  0  0  0  0  0  0  0
    2.0000   -3.5000    0.0000 C   0  0  0  0  0  0  0  0  0  0  0  0
    5.4641   -0.5000    0.0000 C   0  0  0  0  0  0  0  0  0  0  0  0
    6.3301   -0.0000    0.0000 C   0  0  0  0  0  0  0  0  0  0  0  0
    4.5981    0.0000    0.0000 C   0  0  0  0  0  0  0  0  0  0  0  0
    6.3301    1.0000    0.0000 C   0  0  0  0  0  0  0  0  0  0  0  0
    4.5981    1.0000    0.0000 C   0  0  0  0  0  0  0  0  0  0  0  0
    5.4641    1.5000    0.0000 C   0  0  0  0  0  0  0  0  0  0  0  0
    8.0622   -0.0000    0.0000 C   0  0  0  0  0  0  0  0  0  0  0  0
    8.9282   -0.5000    0.0000 C   0  0  0  0  0  0  0  0  0  0  0  0
    5.4641    2.5000    0.0000 C   0  0  0  0  0  0  0  0  0  0  0  0
   10.6603   -0.5000    0.0000 C   0  0  0  0  0  0  0  0  0  0  0  0
    9.7942   -0.0000    0.0000 C   0  0  0  0  0  0  0  0  0  0  0  0
   10.6603   -1.5000    0.0000 C   0  0  0  0  0  0  0  0  0  0  0  0
   11.5263   -0.0000    0.0000 C   0  0  0  0  0  0  0  0  0  0  0  0
    8.9282   -1.5000    0.0000 C   0  0  0  0  0  0  0  0  0  0  0  0
    9.7942   -2.0000    0.0000 C   0  0  0  0  0  0  0  0  0  0  0  0
   12.3923   -0.5000    0.0000 C   0  0  0  0  0  0  0  0  0  0  0  0
   11.5263    1.0000    0.0000 C   0  0  0  0  0  0  0  0  0  0  0  0
   13.2583   -0.0000    0.0000 C   0  0  0  0  0  0  0  0  0  0  0  0
   11.5263   -2.0000    0.0000 C   0  0  0  0  0  0  0  0  0  0  0  0
   13.2583    1.0000    0.0000 C   0  0  0  0  0  0  0  0  0  0  0  0
   12.3923    1.5000    0.0000 C   0  0  0  0  0  0  0  0  0  0  0  0
   14.1523   -0.5347    0.0000 C   0  0  0  0  0  0  0  0  0  0  0  0
   15.0583    1.0208    0.0000 C   0  0  0  0  0  0  0  0  0  0  0  0
   16.7904    1.0275    0.0000 C   0  0  0  0  0  0  0  0  0  0  0  0
    4.5981   -1.3800    0.0000 H   0  0  0  0  0  0  0  0  0  0  0  0
    4.8101   -3.5826    0.0000 H   0  0  0  0  0  0  0  0  0  0  0  0
    5.2087   -2.8923    0.0000 H   0  0  0  0  0  0  0  0  0  0  0  0
    4.1306   -1.0250    0.0000 H   0  0  0  0  0  0  0  0  0  0  0  0
    3.3335   -1.0250    0.0000 H   0  0  0  0  0  0  0  0  0  0  0  0
    3.3335   -3.9750    0.0000 H   0  0  0  0  0  0  0  0  0  0  0  0
    4.1306   -3.9750    0.0000 H   0  0  0  0  0  0  0  0  0  0  0  0
    2.6540   -1.4174    0.0000 H   0  0  0  0  0  0  0  0  0  0  0  0
    2.2554   -2.1077    0.0000 H   0  0  0  0  0  0  0  0  0  0  0  0
    1.6900   -2.9631    0.0000 H   0  0  0  0  0  0  0  0  0  0  0  0
    1.4631   -3.8100    0.0000 H   0  0  0  0  0  0  0  0  0  0  0  0
    2.3100   -4.0369    0.0000 H   0  0  0  0  0  0  0  0  0  0  0  0
    4.0611   -0.3100    0.0000 H   0  0  0  0  0  0  0  0  0  0  0  0
    6.8671    1.3100    0.0000 H   0  0  0  0  0  0  0  0  0  0  0  0
    4.0611    1.3100    0.0000 H   0  0  0  0  0  0  0  0  0  0  0  0
    7.1962   -1.1200    0.0000 H   0  0  0  0  0  0  0  0  0  0  0  0
    9.7942    0.6200    0.0000 H   0  0  0  0  0  0  0  0  0  0  0  0
    8.3913   -1.8100    0.0000 H   0  0  0  0  0  0  0  0  0  0  0  0
    9.7942   -2.6200    0.0000 H   0  0  0  0  0  0  0  0  0  0  0  0
   12.3923   -1.1200    0.0000 H   0  0  0  0  0  0  0  0  0  0  0  0
   10.9893    1.3100    0.0000 H   0  0  0  0  0  0  0  0  0  0  0  0
   11.2163   -2.5369    0.0000 H   0  0  0  0  0  0  0  0  0  0  0  0
   12.0632   -2.3100    0.0000 H   0  0  0  0  0  0  0  0  0  0  0  0
   11.8363   -1.4631    0.0000 H   0  0  0  0  0  0  0  0  0  0  0  0
   12.3923    2.1200    0.0000 H   0  0  0  0  0  0  0  0  0  0  0  0
   14.1451   -1.1546    0.0000 H   0  0  0  0  0  0  0  0  0  0  0  0
   15.9200    2.1441    0.0000 H   0  0  0  0  0  0  0  0  0  0  0  0
   16.4824    0.4894    0.0000 H   0  0  0  0  0  0  0  0  0  0  0  0
   17.3285    0.7196    0.0000 H   0  0  0  0  0  0  0  0  0  0  0  0
   17.0983    1.5656    0.0000 H   0  0  0  0  0  0  0  0  0  0  0  0
  1 25  1  0  0  0  0
  2 25  1  0  0  0  0
  3 25  1  0  0  0  0
  4 11  1  0  0  0  0
  4 17  1  0  0  0  0
  5 23  2  0  0  0  0
  6 14  1  0  0  0  0
  6 15  1  0  0  0  0
  6 16  1  0  0  0  0
  7 18  1  0  0  0  0
  7 23  1  0  0  0  0
  7 56  1  0  0  0  0
  8 36  2  0  0  0  0
  8 39  1  0  0  0  0
  9 38  1  0  0  0  0
  9 39  2  0  0  0  0
 10 39  1  0  0  0  0
 10 40  1  0  0  0  0
 10 67  1  0  0  0  0
 11 12  1  0  0  0  0
 11 13  1  0  0  0  0
 11 41  1  0  0  0  0
 12 14  1  0  0  0  0
 12 42  1  0  0  0  0
 12 43  1  0  0  0  0
 13 15  1  0  0  0  0
 13 44  1  0  0  0  0
 13 45  1  0  0  0  0
 14 46  1  0  0  0  0
 14 47  1  0  0  0  0
 15 48  1  0  0  0  0
 15 49  1  0  0  0  0
 16 50  1  0  0  0  0
 16 51  1  0  0  0  0
 16 52  1  0  0  0  0
 17 18  2  0  0  0  0
 17 19  1  0  0  0  0
 18 20  1  0  0  0  0
 19 21  2  0  0  0  0
 19 53  1  0  0  0  0
 20 22  2  0  0  0  0
 20 54  1  0  0  0  0
 21 22  1  0  0  0  0
 21 55  1  0  0  0  0
 22 25  1  0  0  0  0
 23 24  1  0  0  0  0
 24 27  2  0  0  0  0
 24 30  1  0  0  0  0
 26 27  1  0  0  0  0
 26 28  2  0  0  0  0
 26 29  1  0  0  0  0
 27 57  1  0  0  0  0
 28 31  1  0  0  0  0
 28 35  1  0  0  0  0
 29 32  2  0  0  0  0
 29 33  1  0  0  0  0
 30 31  2  0  0  0  0
 30 58  1  0  0  0  0
 31 59  1  0  0  0  0
 32 34  1  0  0  0  0
 32 60  1  0  0  0  0
 33 37  2  0  0  0  0
 33 61  1  0  0  0  0
 34 36  1  0  0  0  0
 34 38  2  0  0  0  0
 35 62  1  0  0  0  0
 35 63  1  0  0  0  0
 35 64  1  0  0  0  0
 36 37  1  0  0  0  0
 37 65  1  0  0  0  0
 38 66  1  0  0  0  0
 40 68  1  0  0  0  0
 40 69  1  0  0  0  0
 40 70  1  0  0  0  0
M  END
> <PUBCHEM_COMPOUND_CID>
16086104

> <PUBCHEM_COMPOUND_CANONICALIZED>
1

> <PUBCHEM_CACTVS_COMPLEXITY>
839

> <PUBCHEM_CACTVS_HBOND_ACCEPTOR>
9

> <PUBCHEM_CACTVS_HBOND_DONOR>
2

> <PUBCHEM_CACTVS_ROTATABLE_BOND>
6

> <PUBCHEM_CACTVS_SUBSKEYS>
AAADceB7sYAAAAAAAAAAAAAAAAAAAAAAAAA8eMECAAAAAACx9AAAHwAQAAAADBzhnhY/1vfIFACoAzV3dACCiCk1IqAJ2KE/bNiOLrLE/duHPSju1BPY6aeYyMCO6AACQAASEADQAASAACQgAAAAAAAAAA==

> <PUBCHEM_IUPAC_OPENEYE_NAME>
4-methyl-3-[2-(methylamino)quinazolin-6-yl]-N-[2-[(1-methyl-4-piperidyl)oxy]-5-(trifluoromethyl)phenyl]benzamide

> <PUBCHEM_IUPAC_CAS_NAME>
4-methyl-3-[2-(methylamino)-6-quinazolinyl]-N-[2-[(1-methyl-4-piperidinyl)oxy]-5-(trifluoromethyl)phenyl]benzamide

> <PUBCHEM_IUPAC_NAME_MARKUP>
4-methyl-3-[2-(methylamino)quinazolin-6-yl]-<I>N</I>-[2-(1-methylpiperidin-4-yl)oxy-5-(trifluoromethyl)phenyl]benzamide

> <PUBCHEM_IUPAC_NAME>
4-methyl-3-[2-(methylamino)quinazolin-6-yl]-N-[2-(1-methylpiperidin-4-yl)oxy-5-(trifluoromethyl)phenyl]benzamide

> <PUBCHEM_IUPAC_SYSTEMATIC_NAME>
4-methyl-3-[2-(methylamino)quinazolin-6-yl]-N-[2-(1-methylpiperidin-4-yl)oxy-5-(trifluoromethyl)phenyl]benzamide

> <PUBCHEM_IUPAC_TRADITIONAL_NAME>
4-methyl-3-[2-(methylamino)quinazolin-6-yl]-N-[2-[(1-methyl-4-piperidyl)oxy]-5-(trifluoromethyl)phenyl]benzamide

> <PUBCHEM_IUPAC_INCHI>
InChI=1S/C30H30F3N5O2/c1-18-4-5-20(15-24(18)19-6-8-25-21(14-19)17-35-29(34-2)37-25)28(39)36-26-16-22(30(31,32)33)7-9-27(26)40-23-10-12-38(3)13-11-23/h4-9,14-17,23H,10-13H2,1-3H3,(H,36,39)(H,34,35,37)

> <PUBCHEM_IUPAC_INCHIKEY>
DGUSFVFTIHATAT-UHFFFAOYSA-N

> <PUBCHEM_XLOGP3_AA>
6.1

> <PUBCHEM_EXACT_MASS>
549.23515970

> <PUBCHEM_MOLECULAR_FORMULA>
C30H30F3N5O2

> <PUBCHEM_MOLECULAR_WEIGHT>
549.6

> <PUBCHEM_SMILES>
CC1=C(C=C(C=C1)C(=O)NC2=C(C=CC(=C2)C(F)(F)F)OC3CCN(CC3)C)C4=CC5=CN=C(N=C5C=C4)NC

> <PUBCHEM_OPENEYE_CAN_SMILES>
CC1=C(C=C(C=C1)C(=O)NC2=C(C=CC(=C2)C(F)(F)F)OC3CCN(CC3)C)C4=CC5=CN=C(N=C5C=C4)NC

> <PUBCHEM_OPENEYE_ISO_SMILES>
CC1=C(C=C(C=C1)C(=O)NC2=C(C=CC(=C2)C(F)(F)F)OC3CCN(CC3)C)C4=CC5=CN=C(N=C5C=C4)NC

> <PUBCHEM_CACTVS_TPSA>
79.4

> <PUBCHEM_MONOISOTOPIC_WEIGHT>
549.23515970

> <PUBCHEM_TOTAL_CHARGE>
0

> <PUBCHEM_HEAVY_ATOM_COUNT>
40

> <PUBCHEM_ATOM_DEF_STEREO_COUNT>
0

> <PUBCHEM_ATOM_UDEF_STEREO_COUNT>
0

> <PUBCHEM_BOND_DEF_STEREO_COUNT>
0

> <PUBCHEM_BOND_UDEF_STEREO_COUNT>
0

> <PUBCHEM_ISOTOPIC_ATOM_COUNT>
0

> <PUBCHEM_COMPONENT_COUNT>
1

> <PUBCHEM_CACTVS_TAUTO_COUNT>
-1

> <PUBCHEM_COORDINATE_TYPE>
1
5
255

> <PUBCHEM_BONDANNOTATIONS>
17  18  8
17  19  8
18  20  8
19  21  8
20  22  8
21  22  8
24  27  8
24  30  8
26  27  8
26  28  8
28  31  8
29  32  8
29  33  8
30  31  8
32  34  8
33  37  8
34  36  8
34  38  8
36  37  8
8  36  8
8  39  8
9  38  8
9  39  8

$$$$
