49830591
  -OEChem-03202503112D

 48 50  0     0  0  0  0  0  0999 V2000
    8.7331    6.0000    0.0000 F   0  0  0  0  0  0  0  0  0  0  0  0
    7.7331    7.0000    0.0000 F   0  0  0  0  0  0  0  0  0  0  0  0
    6.7331    6.0000    0.0000 F   0  0  0  0  0  0  0  0  0  0  0  0
    5.1350   -2.5000    0.0000 O   0  0  0  0  0  0  0  0  0  0  0  0
    6.8671    1.5000    0.0000 O   0  0  0  0  0  0  0  0  0  0  0  0
    4.2690   -6.0000    0.0000 O   0  0  0  0  0  0  0  0  0  0  0  0
    6.0010    3.0000    0.0000 N   0  0  0  0  0  0  0  0  0  0  0  0
    5.1350    1.5000    0.0000 N   0  0  0  0  0  0  0  0  0  0  0  0
    2.5369   -4.0000    0.0000 N   0  0  0  0  0  0  0  0  0  0  0  0
    2.5369   -6.0000    0.0000 N   0  0  0  0  0  0  0  0  0  0  0  0
    6.8671    3.5000    0.0000 C   0  0  0  0  0  0  0  0  0  0  0  0
    7.7331    5.0000    0.0000 C   0  0  0  0  0  0  0  0  0  0  0  0
    5.1350    0.5000    0.0000 C   0  0  0  0  0  0  0  0  0  0  0  0
    6.8671    4.5000    0.0000 C   0  0  0  0  0  0  0  0  0  0  0  0
    5.1350   -1.5000    0.0000 C   0  0  0  0  0  0  0  0  0  0  0  0
    7.7331    3.0000    0.0000 C   0  0  0  0  0  0  0  0  0  0  0  0
    4.2690   -0.0000    0.0000 C   0  0  0  0  0  0  0  0  0  0  0  0
    6.0010   -0.0000    0.0000 C   0  0  0  0  0  0  0  0  0  0  0  0
    8.5991    4.5000    0.0000 C   0  0  0  0  0  0  0  0  0  0  0  0
    4.2690   -1.0000    0.0000 C   0  0  0  0  0  0  0  0  0  0  0  0
    6.0010   -1.0000    0.0000 C   0  0  0  0  0  0  0  0  0  0  0  0
    8.5991    3.5000    0.0000 C   0  0  0  0  0  0  0  0  0  0  0  0
    6.0010    2.0000    0.0000 C   0  0  0  0  0  0  0  0  0  0  0  0
    7.7331    6.0000    0.0000 C   0  0  0  0  0  0  0  0  0  0  0  0
    4.2690   -3.0000    0.0000 C   0  0  0  0  0  0  0  0  0  0  0  0
    4.2690   -4.0000    0.0000 C   0  0  0  0  0  0  0  0  0  0  0  0
    3.4030   -4.5000    0.0000 C   0  0  0  0  0  0  0  0  0  0  0  0
    3.4030   -2.5000    0.0000 C   0  0  0  0  0  0  0  0  0  0  0  0
    2.5369   -3.0000    0.0000 C   0  0  0  0  0  0  0  0  0  0  0  0
    3.4030   -5.5000    0.0000 C   0  0  0  0  0  0  0  0  0  0  0  0
    2.5369   -7.0000    0.0000 C   0  0  0  0  0  0  0  0  0  0  0  0
    6.3301    4.8100    0.0000 H   0  0  0  0  0  0  0  0  0  0  0  0
    7.7331    2.3800    0.0000 H   0  0  0  0  0  0  0  0  0  0  0  0
    5.4641    3.3100    0.0000 H   0  0  0  0  0  0  0  0  0  0  0  0
    3.7320    0.3100    0.0000 H   0  0  0  0  0  0  0  0  0  0  0  0
    6.5380    0.3100    0.0000 H   0  0  0  0  0  0  0  0  0  0  0  0
    9.1360    4.8100    0.0000 H   0  0  0  0  0  0  0  0  0  0  0  0
    4.5981    1.8100    0.0000 H   0  0  0  0  0  0  0  0  0  0  0  0
    3.7320   -1.3100    0.0000 H   0  0  0  0  0  0  0  0  0  0  0  0
    6.5380   -1.3100    0.0000 H   0  0  0  0  0  0  0  0  0  0  0  0
    9.1360    3.1900    0.0000 H   0  0  0  0  0  0  0  0  0  0  0  0
    4.8059   -4.3100    0.0000 H   0  0  0  0  0  0  0  0  0  0  0  0
    3.4030   -1.8800    0.0000 H   0  0  0  0  0  0  0  0  0  0  0  0
    2.0000   -2.6900    0.0000 H   0  0  0  0  0  0  0  0  0  0  0  0
    2.0000   -5.6900    0.0000 H   0  0  0  0  0  0  0  0  0  0  0  0
    1.9169   -7.0000    0.0000 H   0  0  0  0  0  0  0  0  0  0  0  0
    2.5369   -7.6200    0.0000 H   0  0  0  0  0  0  0  0  0  0  0  0
    3.1569   -7.0000    0.0000 H   0  0  0  0  0  0  0  0  0  0  0  0
  1 24  1  0  0  0  0
  2 24  1  0  0  0  0
  3 24  1  0  0  0  0
  4 15  1  0  0  0  0
  4 25  1  0  0  0  0
  5 23  2  0  0  0  0
  6 30  2  0  0  0  0
  7 11  1  0  0  0  0
  7 23  1  0  0  0  0
  7 34  1  0  0  0  0
  8 13  1  0  0  0  0
  8 23  1  0  0  0  0
  8 38  1  0  0  0  0
  9 27  2  0  0  0  0
  9 29  1  0  0  0  0
 10 30  1  0  0  0  0
 10 31  1  0  0  0  0
 10 45  1  0  0  0  0
 11 14  1  0  0  0  0
 11 16  2  0  0  0  0
 12 14  2  0  0  0  0
 12 19  1  0  0  0  0
 12 24  1  0  0  0  0
 13 17  2  0  0  0  0
 13 18  1  0  0  0  0
 14 32  1  0  0  0  0
 15 20  2  0  0  0  0
 15 21  1  0  0  0  0
 16 22  1  0  0  0  0
 16 33  1  0  0  0  0
 17 20  1  0  0  0  0
 17 35  1  0  0  0  0
 18 21  2  0  0  0  0
 18 36  1  0  0  0  0
 19 22  2  0  0  0  0
 19 37  1  0  0  0  0
 20 39  1  0  0  0  0
 21 40  1  0  0  0  0
 22 41  1  0  0  0  0
 25 26  2  0  0  0  0
 25 28  1  0  0  0  0
 26 27  1  0  0  0  0
 26 42  1  0  0  0  0
 27 30  1  0  0  0  0
 28 29  2  0  0  0  0
 28 43  1  0  0  0  0
 29 44  1  0  0  0  0
 31 46  1  0  0  0  0
 31 47  1  0  0  0  0
 31 48  1  0  0  0  0
M  END
> <PUBCHEM_COMPOUND_CID>
49830591

> <PUBCHEM_COMPOUND_CANONICALIZED>
1

> <PUBCHEM_CACTVS_COMPLEXITY>
611

> <PUBCHEM_CACTVS_HBOND_ACCEPTOR>
7

> <PUBCHEM_CACTVS_HBOND_DONOR>
3

> <PUBCHEM_CACTVS_ROTATABLE_BOND>
5

> <PUBCHEM_CACTVS_SUBSKEYS>
AAADceB7sYAAAAAAAAAAAAAAAAAAAAAAAAA8YIAAAAAAAAAB0AAAHwAQAAAADAzBnhQ/xpLIFACoAzV3VACCiCA3IiAI2KG+bNiMZnLEtbuWOSju1hvI6ae6yAAOAEAAQAAAAAAAgACAAAAAAAAAAAAAAA==

> <PUBCHEM_IUPAC_OPENEYE_NAME>
N-methyl-4-[4-[[3-(trifluoromethyl)phenyl]carbamoylamino]phenoxy]pyridine-2-carboxamide

> <PUBCHEM_IUPAC_CAS_NAME>
N-methyl-4-[4-[[oxo-[3-(trifluoromethyl)anilino]methyl]amino]phenoxy]-2-pyridinecarboxamide

> <PUBCHEM_IUPAC_NAME_MARKUP>
<I>N</I>-methyl-4-[4-[[3-(trifluoromethyl)phenyl]carbamoylamino]phenoxy]pyridine-2-carboxamide

> <PUBCHEM_IUPAC_NAME>
N-methyl-4-[4-[[3-(trifluoromethyl)phenyl]carbamoylamino]phenoxy]pyridine-2-carboxamide

> <PUBCHEM_IUPAC_SYSTEMATIC_NAME>
N-methyl-4-[4-[[3-(trifluoromethyl)phenyl]carbamoylamino]phenoxy]pyridine-2-carboxamide

> <PUBCHEM_IUPAC_TRADITIONAL_NAME>
N-methyl-4-[4-[[3-(trifluoromethyl)phenyl]carbamoylamino]phenoxy]picolinamide

> <PUBCHEM_IUPAC_INCHI>
InChI=1S/C21H17F3N4O3/c1-25-19(29)18-12-17(9-10-26-18)31-16-7-5-14(6-8-16)27-20(30)28-15-4-2-3-13(11-15)21(22,23)24/h2-12H,1H3,(H,25,29)(H2,27,28,30)

> <PUBCHEM_IUPAC_INCHIKEY>
WFTZMAAMCVPJJT-UHFFFAOYSA-N

> <PUBCHEM_XLOGP3_AA>
3.4

> <PUBCHEM_EXACT_MASS>
430.12527490

> <PUBCHEM_MOLECULAR_FORMULA>
C21H17F3N4O3

> <PUBCHEM_MOLECULAR_WEIGHT>
430.4

> <PUBCHEM_SMILES>
CNC(=O)C1=NC=CC(=C1)OC2=CC=C(C=C2)NC(=O)NC3=CC=CC(=C3)C(F)(F)F

> <PUBCHEM_OPENEYE_CAN_SMILES>
CNC(=O)C1=NC=CC(=C1)OC2=CC=C(C=C2)NC(=O)NC3=CC=CC(=C3)C(F)(F)F

> <PUBCHEM_OPENEYE_ISO_SMILES>
CNC(=O)C1=NC=CC(=C1)OC2=CC=C(C=C2)NC(=O)NC3=CC=CC(=C3)C(F)(F)F

> <PUBCHEM_CACTVS_TPSA>
92.4

> <PUBCHEM_MONOISOTOPIC_WEIGHT>
430.12527490

> <PUBCHEM_TOTAL_CHARGE>
0

> <PUBCHEM_HEAVY_ATOM_COUNT>
31

> <PUBCHEM_ATOM_DEF_STEREO_COUNT>
0

> <PUBCHEM_ATOM_UDEF_STEREO_COUNT>
0

> <PUBCHEM_BOND_DEF_STEREO_COUNT>
0

> <PUBCHEM_BOND_UDEF_STEREO_COUNT>
0

> <PUBCHEM_ISOTOPIC_ATOM_COUNT>
0

> <PUBCHEM_COMPONENT_COUNT>
1

> <PUBCHEM_CACTVS_TAUTO_COUNT>
-1

> <PUBCHEM_COORDINATE_TYPE>
1
5
255

> <PUBCHEM_BONDANNOTATIONS>
11  14  8
11  16  8
12  14  8
12  19  8
13  17  8
13  18  8
15  20  8
15  21  8
16  22  8
17  20  8
18  21  8
19  22  8
25  26  8
25  28  8
26  27  8
28  29  8
9  27  8
9  29  8

$$$$
