11620410
  -OEChem-03202504562D

 62 66  0     1  0  0  0  0  0999 V2000
   14.3241   -1.0747    0.0000 Cl  0  0  0  0  0  0  0  0  0  0  0  0
   12.3241   -1.0747    0.0000 O   0  0  0  0  0  0  0  0  0  0  0  0
   10.7404    1.5847    0.0000 O   0  0  0  0  0  0  0  0  0  0  0  0
    7.1962    3.3894    0.0000 O   0  0  0  0  0  0  0  0  0  0  0  0
    3.7320    4.3894    0.0000 O   0  0  0  0  0  0  0  0  0  0  0  0
   12.7308   -3.7203    0.0000 N   0  0  3  0  0  0  0  0  0  0  0  0
   12.3241    2.3894    0.0000 N   0  0  0  0  0  0  0  0  0  0  0  0
   10.7404    3.1942    0.0000 N   0  0  0  0  0  0  0  0  0  0  0  0
    4.5981    1.8894    0.0000 N   0  0  0  0  0  0  0  0  0  0  0  0
    2.8660    2.8894    0.0000 N   0  0  0  0  0  0  0  0  0  0  0  0
   12.3241   -2.8067    0.0000 C   0  0  1  0  0  0  0  0  0  0  0  0
   11.3295   -2.9113    0.0000 C   0  0  0  0  0  0  0  0  0  0  0  0
   11.1216   -3.8894    0.0000 C   0  0  0  0  0  0  0  0  0  0  0  0
   11.9876   -4.3894    0.0000 C   0  0  0  0  0  0  0  0  0  0  0  0
   12.8241   -1.9407    0.0000 C   0  0  0  0  0  0  0  0  0  0  0  0
   13.7089   -3.9282    0.0000 C   0  0  0  0  0  0  0  0  0  0  0  0
   12.8241   -0.2087    0.0000 C   0  0  0  0  0  0  0  0  0  0  0  0
   12.3241    0.6574    0.0000 C   0  0  0  0  0  0  0  0  0  0  0  0
   13.8241   -0.2087    0.0000 C   0  0  0  0  0  0  0  0  0  0  0  0
   12.8241    1.5234    0.0000 C   0  0  0  0  0  0  0  0  0  0  0  0
   14.3241    0.6574    0.0000 C   0  0  0  0  0  0  0  0  0  0  0  0
   13.8241    1.5234    0.0000 C   0  0  0  0  0  0  0  0  0  0  0  0
   11.3241    2.3894    0.0000 C   0  0  0  0  0  0  0  0  0  0  0  0
    9.7942    2.8894    0.0000 C   0  0  0  0  0  0  0  0  0  0  0  0
    9.7942    1.8894    0.0000 C   0  0  0  0  0  0  0  0  0  0  0  0
    8.9282    3.3894    0.0000 C   0  0  0  0  0  0  0  0  0  0  0  0
    8.9282    1.3894    0.0000 C   0  0  0  0  0  0  0  0  0  0  0  0
    8.0622    2.8894    0.0000 C   0  0  0  0  0  0  0  0  0  0  0  0
    8.0622    1.8894    0.0000 C   0  0  0  0  0  0  0  0  0  0  0  0
    6.3301    2.8894    0.0000 C   0  0  0  0  0  0  0  0  0  0  0  0
    5.4641    3.3894    0.0000 C   0  0  0  0  0  0  0  0  0  0  0  0
    6.3301    1.8894    0.0000 C   0  0  0  0  0  0  0  0  0  0  0  0
    4.5981    2.8894    0.0000 C   0  0  0  0  0  0  0  0  0  0  0  0
    5.4641    1.3894    0.0000 C   0  0  0  0  0  0  0  0  0  0  0  0
    3.7320    3.3894    0.0000 C   0  0  0  0  0  0  0  0  0  0  0  0
    2.0000    3.3894    0.0000 C   0  0  0  0  0  0  0  0  0  0  0  0
   12.9432   -2.8392    0.0000 H   0  0  0  0  0  0  0  0  0  0  0  0
   11.3295   -2.2913    0.0000 H   0  0  0  0  0  0  0  0  0  0  0  0
   10.7129   -2.8465    0.0000 H   0  0  0  0  0  0  0  0  0  0  0  0
   10.5320   -3.6978    0.0000 H   0  0  0  0  0  0  0  0  0  0  0  0
   10.8694   -4.4558    0.0000 H   0  0  0  0  0  0  0  0  0  0  0  0
   11.6232   -4.8910    0.0000 H   0  0  0  0  0  0  0  0  0  0  0  0
   12.4484   -4.8043    0.0000 H   0  0  0  0  0  0  0  0  0  0  0  0
   13.2990   -2.3392    0.0000 H   0  0  0  0  0  0  0  0  0  0  0  0
   13.2990   -1.5422    0.0000 H   0  0  0  0  0  0  0  0  0  0  0  0
   13.5800   -4.5346    0.0000 H   0  0  0  0  0  0  0  0  0  0  0  0
   14.3154   -4.0571    0.0000 H   0  0  0  0  0  0  0  0  0  0  0  0
   13.8378   -3.3217    0.0000 H   0  0  0  0  0  0  0  0  0  0  0  0
   11.7041    0.6574    0.0000 H   0  0  0  0  0  0  0  0  0  0  0  0
   14.9441    0.6574    0.0000 H   0  0  0  0  0  0  0  0  0  0  0  0
   14.1341    2.0603    0.0000 H   0  0  0  0  0  0  0  0  0  0  0  0
   12.6341    2.9263    0.0000 H   0  0  0  0  0  0  0  0  0  0  0  0
    8.9282    4.0094    0.0000 H   0  0  0  0  0  0  0  0  0  0  0  0
    8.9282    0.7694    0.0000 H   0  0  0  0  0  0  0  0  0  0  0  0
    7.5252    1.5794    0.0000 H   0  0  0  0  0  0  0  0  0  0  0  0
    5.4641    4.0094    0.0000 H   0  0  0  0  0  0  0  0  0  0  0  0
    6.8671    1.5794    0.0000 H   0  0  0  0  0  0  0  0  0  0  0  0
    5.4641    0.7694    0.0000 H   0  0  0  0  0  0  0  0  0  0  0  0
    2.8660    2.2694    0.0000 H   0  0  0  0  0  0  0  0  0  0  0  0
    2.3100    3.9264    0.0000 H   0  0  0  0  0  0  0  0  0  0  0  0
    1.4631    3.6994    0.0000 H   0  0  0  0  0  0  0  0  0  0  0  0
    1.6900    2.8525    0.0000 H   0  0  0  0  0  0  0  0  0  0  0  0
  1 19  1  0  0  0  0
  2 15  1  0  0  0  0
  2 17  1  0  0  0  0
  3 23  1  0  0  0  0
  3 25  1  0  0  0  0
  4 28  1  0  0  0  0
  4 30  1  0  0  0  0
  5 35  2  0  0  0  0
  6 11  1  0  0  0  0
  6 14  1  0  0  0  0
  6 16  1  0  0  0  0
  7 20  1  0  0  0  0
  7 23  1  0  0  0  0
  7 52  1  0  0  0  0
  8 23  2  0  0  0  0
  8 24  1  0  0  0  0
  9 33  2  0  0  0  0
  9 34  1  0  0  0  0
 10 35  1  0  0  0  0
 10 36  1  0  0  0  0
 10 59  1  0  0  0  0
 11 12  1  0  0  0  0
 11 15  1  1  0  0  0
 11 37  1  0  0  0  0
 12 13  1  0  0  0  0
 12 38  1  0  0  0  0
 12 39  1  0  0  0  0
 13 14  1  0  0  0  0
 13 40  1  0  0  0  0
 13 41  1  0  0  0  0
 14 42  1  0  0  0  0
 14 43  1  0  0  0  0
 15 44  1  0  0  0  0
 15 45  1  0  0  0  0
 16 46  1  0  0  0  0
 16 47  1  0  0  0  0
 16 48  1  0  0  0  0
 17 18  1  0  0  0  0
 17 19  2  0  0  0  0
 18 20  2  0  0  0  0
 18 49  1  0  0  0  0
 19 21  1  0  0  0  0
 20 22  1  0  0  0  0
 21 22  2  0  0  0  0
 21 50  1  0  0  0  0
 22 51  1  0  0  0  0
 24 25  2  0  0  0  0
 24 26  1  0  0  0  0
 25 27  1  0  0  0  0
 26 28  2  0  0  0  0
 26 53  1  0  0  0  0
 27 29  2  0  0  0  0
 27 54  1  0  0  0  0
 28 29  1  0  0  0  0
 29 55  1  0  0  0  0
 30 31  2  0  0  0  0
 30 32  1  0  0  0  0
 31 33  1  0  0  0  0
 31 56  1  0  0  0  0
 32 34  2  0  0  0  0
 32 57  1  0  0  0  0
 33 35  1  0  0  0  0
 34 58  1  0  0  0  0
 36 60  1  0  0  0  0
 36 61  1  0  0  0  0
 36 62  1  0  0  0  0
M  END
> <PUBCHEM_COMPOUND_CID>
11620410

> <PUBCHEM_COMPOUND_CANONICALIZED>
1

> <PUBCHEM_CACTVS_COMPLEXITY>
734

> <PUBCHEM_CACTVS_HBOND_ACCEPTOR>
8

> <PUBCHEM_CACTVS_HBOND_DONOR>
2

> <PUBCHEM_CACTVS_ROTATABLE_BOND>
8

> <PUBCHEM_CACTVS_SUBSKEYS>
AAADceB7uAAEAAAAAAAAAAAAAAAAAWLAAAA8YIAAAAAAAFgB/AAAHgIQAAAACC7hliY/1rPIFECoAbV3dASCiCk/Z2AJ2KG/b9mOZvPFv7ufOSju1hvY6af6WAMAAQBAAgAAGAACAIAEAAAwAAAAAAAAAA==

> <PUBCHEM_IUPAC_OPENEYE_NAME>
4-[[2-[4-chloro-3-[[(2S)-1-methylpyrrolidin-2-yl]methoxy]anilino]-1,3-benzoxazol-5-yl]oxy]-N-methyl-pyridine-2-carboxamide

> <PUBCHEM_IUPAC_CAS_NAME>
4-[[2-[4-chloro-3-[[(2S)-1-methyl-2-pyrrolidinyl]methoxy]anilino]-1,3-benzoxazol-5-yl]oxy]-N-methyl-2-pyridinecarboxamide

> <PUBCHEM_IUPAC_NAME_MARKUP>
4-[[2-[4-chloro-3-[[(2<I>S</I>)-1-methylpyrrolidin-2-yl]methoxy]anilino]-1,3-benzoxazol-5-yl]oxy]-<I>N</I>-methylpyridine-2-carboxamide

> <PUBCHEM_IUPAC_NAME>
4-[[2-[4-chloro-3-[[(2S)-1-methylpyrrolidin-2-yl]methoxy]anilino]-1,3-benzoxazol-5-yl]oxy]-N-methylpyridine-2-carboxamide

> <PUBCHEM_IUPAC_SYSTEMATIC_NAME>
4-[[2-[[4-chloranyl-3-[[(2S)-1-methylpyrrolidin-2-yl]methoxy]phenyl]amino]-1,3-benzoxazol-5-yl]oxy]-N-methyl-pyridine-2-carboxamide

> <PUBCHEM_IUPAC_TRADITIONAL_NAME>
4-[[2-[4-chloro-3-[[(2S)-1-methylpyrrolidin-2-yl]methoxy]anilino]-1,3-benzoxazol-5-yl]oxy]-N-methyl-picolinamide

> <PUBCHEM_IUPAC_INCHI>
InChI=1S/C26H26ClN5O4/c1-28-25(33)22-14-19(9-10-29-22)35-18-6-8-23-21(13-18)31-26(36-23)30-16-5-7-20(27)24(12-16)34-15-17-4-3-11-32(17)2/h5-10,12-14,17H,3-4,11,15H2,1-2H3,(H,28,33)(H,30,31)/t17-/m0/s1

> <PUBCHEM_IUPAC_INCHIKEY>
KMNCFOUKJYOZIF-KRWDZBQOSA-N

> <PUBCHEM_XLOGP3_AA>
4.9

> <PUBCHEM_EXACT_MASS>
507.1673320

> <PUBCHEM_MOLECULAR_FORMULA>
C26H26ClN5O4

> <PUBCHEM_MOLECULAR_WEIGHT>
508.0

> <PUBCHEM_SMILES>
CNC(=O)C1=NC=CC(=C1)OC2=CC3=C(C=C2)OC(=N3)NC4=CC(=C(C=C4)Cl)OC[C@@H]5CCCN5C

> <PUBCHEM_OPENEYE_CAN_SMILES>
CNC(=O)C1=NC=CC(=C1)OC2=CC3=C(C=C2)OC(=N3)NC4=CC(=C(C=C4)Cl)OCC5CCCN5C

> <PUBCHEM_OPENEYE_ISO_SMILES>
CNC(=O)C1=NC=CC(=C1)OC2=CC3=C(C=C2)OC(=N3)NC4=CC(=C(C=C4)Cl)OC[C@@H]5CCCN5C

> <PUBCHEM_CACTVS_TPSA>
102

> <PUBCHEM_MONOISOTOPIC_WEIGHT>
507.1673320

> <PUBCHEM_TOTAL_CHARGE>
0

> <PUBCHEM_HEAVY_ATOM_COUNT>
36

> <PUBCHEM_ATOM_DEF_STEREO_COUNT>
1

> <PUBCHEM_ATOM_UDEF_STEREO_COUNT>
0

> <PUBCHEM_BOND_DEF_STEREO_COUNT>
0

> <PUBCHEM_BOND_UDEF_STEREO_COUNT>
0

> <PUBCHEM_ISOTOPIC_ATOM_COUNT>
0

> <PUBCHEM_COMPONENT_COUNT>
1

> <PUBCHEM_CACTVS_TAUTO_COUNT>
-1

> <PUBCHEM_COORDINATE_TYPE>
1
5
255

> <PUBCHEM_BONDANNOTATIONS>
11  15  5
17  18  8
17  19  8
18  20  8
19  21  8
20  22  8
21  22  8
24  25  8
24  26  8
25  27  8
26  28  8
27  29  8
28  29  8
3  23  8
3  25  8
30  31  8
30  32  8
31  33  8
32  34  8
8  23  8
8  24  8
9  33  8
9  34  8

$$$$
