44328911
  -OEChem-03202505332D

 90 98  0     0  0  0  0  0  0999 V2000
   17.0091   -1.1586    0.0000 O   0  0  0  0  0  0  0  0  0  0  0  0
   10.3476    1.1450    0.0000 O   0  0  0  0  0  0  0  0  0  0  0  0
    7.2462    0.1335    0.0000 O   0  0  0  0  0  0  0  0  0  0  0  0
    2.6293    1.3124    0.0000 O   0  0  0  0  0  0  0  0  0  0  0  0
    3.6618   -3.5865    0.0000 O   0  0  0  0  0  0  0  0  0  0  0  0
    5.1632   -2.7230    0.0000 O   0  0  0  0  0  0  0  0  0  0  0  0
   13.2831    1.7637    0.0000 N   0  0  0  0  0  0  0  0  0  0  0  0
   13.2831   -0.5705    0.0000 N   0  0  0  0  0  0  0  0  0  0  0  0
   17.2820    0.5966    0.0000 N   0  0  0  0  0  0  0  0  0  0  0  0
    9.9904    2.8399    0.0000 N   0  0  0  0  0  0  0  0  0  0  0  0
    7.4030    2.8056    0.0000 N   0  0  0  0  0  0  0  0  0  0  0  0
    4.5612    2.1061    0.0000 N   0  0  0  0  0  0  0  0  0  0  0  0
    2.6704   -1.7482    0.0000 N   0  0  0  0  0  0  0  0  0  0  0  0
   14.0201    1.0966    0.0000 C   0  0  0  0  0  0  0  0  0  0  0  0
   14.8861    1.5966    0.0000 C   0  0  0  0  0  0  0  0  0  0  0  0
   15.7522    1.0966    0.0000 C   0  0  0  0  0  0  0  0  0  0  0  0
   14.0201    0.0966    0.0000 C   0  0  0  0  0  0  0  0  0  0  0  0
   14.8861   -0.4034    0.0000 C   0  0  0  0  0  0  0  0  0  0  0  0
   15.7522    0.0966    0.0000 C   0  0  0  0  0  0  0  0  0  0  0  0
   14.6769    2.5684    0.0000 C   0  0  0  0  0  0  0  0  0  0  0  0
   13.6882    2.6715    0.0000 C   0  0  0  0  0  0  0  0  0  0  0  0
   16.6984    1.4014    0.0000 C   0  0  0  0  0  0  0  0  0  0  0  0
   14.6769   -1.3752    0.0000 C   0  0  0  0  0  0  0  0  0  0  0  0
   12.3046    1.5575    0.0000 C   0  0  0  0  0  0  0  0  0  0  0  0
   13.6882   -1.4782    0.0000 C   0  0  0  0  0  0  0  0  0  0  0  0
   16.6984   -0.2081    0.0000 C   0  0  0  0  0  0  0  0  0  0  0  0
   15.2977    3.3972    0.0000 C   0  0  0  0  0  0  0  0  0  0  0  0
   13.2517    3.6105    0.0000 C   0  0  0  0  0  0  0  0  0  0  0  0
   11.6368    2.3018    0.0000 C   0  0  0  0  0  0  0  0  0  0  0  0
   15.2977   -2.2040    0.0000 C   0  0  0  0  0  0  0  0  0  0  0  0
   13.2517   -2.4172    0.0000 C   0  0  0  0  0  0  0  0  0  0  0  0
   14.8830    4.3460    0.0000 C   0  0  0  0  0  0  0  0  0  0  0  0
   13.8531    4.4534    0.0000 C   0  0  0  0  0  0  0  0  0  0  0  0
   14.8830   -3.1528    0.0000 C   0  0  0  0  0  0  0  0  0  0  0  0
   13.8531   -3.2601    0.0000 C   0  0  0  0  0  0  0  0  0  0  0  0
   10.6583    2.0956    0.0000 C   0  0  0  0  0  0  0  0  0  0  0  0
    9.0119    2.6337    0.0000 C   0  0  0  0  0  0  0  0  0  0  0  0
    8.6036    1.7208    0.0000 C   0  0  0  0  0  0  0  0  0  0  0  0
    8.2699    3.3041    0.0000 C   0  0  0  0  0  0  0  0  0  0  0  0
    7.6092    1.8271    0.0000 C   0  0  0  0  0  0  0  0  0  0  0  0
    6.9388    1.0851    0.0000 C   0  0  0  0  0  0  0  0  0  0  0  0
    5.9610    1.2947    0.0000 C   0  0  0  0  0  0  0  0  0  0  0  0
    6.4902    3.2139    0.0000 C   0  0  0  0  0  0  0  0  0  0  0  0
    4.3516    1.1283    0.0000 C   0  0  0  0  0  0  0  0  0  0  0  0
    5.2167    0.6268    0.0000 C   0  0  0  0  0  0  0  0  0  0  0  0
    5.5559    2.2089    0.0000 C   0  0  0  0  0  0  0  0  0  0  0  0
    3.4373    0.7232    0.0000 C   0  0  0  0  0  0  0  0  0  0  0  0
    3.3311   -0.2712    0.0000 C   0  0  0  0  0  0  0  0  0  0  0  0
    3.8933    2.8504    0.0000 C   0  0  0  0  0  0  0  0  0  0  0  0
    2.4642   -0.7697    0.0000 C   0  0  0  0  0  0  0  0  0  0  0  0
    4.0731   -0.9416    0.0000 C   0  0  0  0  0  0  0  0  0  0  0  0
    3.6648   -1.8544    0.0000 C   0  0  0  0  0  0  0  0  0  0  0  0
    2.0000   -2.4902    0.0000 C   0  0  0  0  0  0  0  0  0  0  0  0
    4.1633   -2.7213    0.0000 C   0  0  0  0  0  0  0  0  0  0  0  0
    4.1603   -4.4534    0.0000 C   0  0  0  0  0  0  0  0  0  0  0  0
   17.2358    1.7106    0.0000 H   0  0  0  0  0  0  0  0  0  0  0  0
   16.4474    1.9683    0.0000 H   0  0  0  0  0  0  0  0  0  0  0  0
   11.7782    1.2299    0.0000 H   0  0  0  0  0  0  0  0  0  0  0  0
   12.5359    0.9822    0.0000 H   0  0  0  0  0  0  0  0  0  0  0  0
   12.6764   -0.4426    0.0000 H   0  0  0  0  0  0  0  0  0  0  0  0
   17.9020    0.5966    0.0000 H   0  0  0  0  0  0  0  0  0  0  0  0
   15.9136    3.3258    0.0000 H   0  0  0  0  0  0  0  0  0  0  0  0
   12.6344    3.6676    0.0000 H   0  0  0  0  0  0  0  0  0  0  0  0
   12.1631    2.6294    0.0000 H   0  0  0  0  0  0  0  0  0  0  0  0
   11.4055    2.8770    0.0000 H   0  0  0  0  0  0  0  0  0  0  0  0
   15.9136   -2.1326    0.0000 H   0  0  0  0  0  0  0  0  0  0  0  0
   12.6344   -2.4744    0.0000 H   0  0  0  0  0  0  0  0  0  0  0  0
   15.2489    4.8465    0.0000 H   0  0  0  0  0  0  0  0  0  0  0  0
   13.5983    5.0186    0.0000 H   0  0  0  0  0  0  0  0  0  0  0  0
   15.2489   -3.6533    0.0000 H   0  0  0  0  0  0  0  0  0  0  0  0
   13.5983   -3.8253    0.0000 H   0  0  0  0  0  0  0  0  0  0  0  0
   10.1830    3.4292    0.0000 H   0  0  0  0  0  0  0  0  0  0  0  0
    8.9127    1.1833    0.0000 H   0  0  0  0  0  0  0  0  0  0  0  0
    8.3358    3.9206    0.0000 H   0  0  0  0  0  0  0  0  0  0  0  0
    6.7433    3.7798    0.0000 H   0  0  0  0  0  0  0  0  0  0  0  0
    5.9242    3.4670    0.0000 H   0  0  0  0  0  0  0  0  0  0  0  0
    6.2370    2.6479    0.0000 H   0  0  0  0  0  0  0  0  0  0  0  0
    5.2805    0.0101    0.0000 H   0  0  0  0  0  0  0  0  0  0  0  0
    5.8668    2.7453    0.0000 H   0  0  0  0  0  0  0  0  0  0  0  0
    4.3548    3.2645    0.0000 H   0  0  0  0  0  0  0  0  0  0  0  0
    3.4793    3.3119    0.0000 H   0  0  0  0  0  0  0  0  0  0  0  0
    3.4319    2.4364    0.0000 H   0  0  0  0  0  0  0  0  0  0  0  0
    1.8982   -0.5165    0.0000 H   0  0  0  0  0  0  0  0  0  0  0  0
    4.6798   -0.8137    0.0000 H   0  0  0  0  0  0  0  0  0  0  0  0
    1.5400   -2.0745    0.0000 H   0  0  0  0  0  0  0  0  0  0  0  0
    1.5843   -2.9502    0.0000 H   0  0  0  0  0  0  0  0  0  0  0  0
    2.4600   -2.9058    0.0000 H   0  0  0  0  0  0  0  0  0  0  0  0
    3.6228   -4.7624    0.0000 H   0  0  0  0  0  0  0  0  0  0  0  0
    4.4693   -4.9908    0.0000 H   0  0  0  0  0  0  0  0  0  0  0  0
    4.6977   -4.1443    0.0000 H   0  0  0  0  0  0  0  0  0  0  0  0
  1 26  2  0  0  0  0
  2 36  2  0  0  0  0
  3 41  2  0  0  0  0
  4 47  2  0  0  0  0
  5 54  1  0  0  0  0
  5 55  1  0  0  0  0
  6 54  2  0  0  0  0
  7 14  1  0  0  0  0
  7 21  1  0  0  0  0
  7 24  1  0  0  0  0
  8 17  1  0  0  0  0
  8 25  1  0  0  0  0
  8 60  1  0  0  0  0
  9 22  1  0  0  0  0
  9 26  1  0  0  0  0
  9 61  1  0  0  0  0
 10 36  1  0  0  0  0
 10 37  1  0  0  0  0
 10 72  1  0  0  0  0
 11 39  1  0  0  0  0
 11 40  1  0  0  0  0
 11 43  1  0  0  0  0
 12 44  1  0  0  0  0
 12 46  1  0  0  0  0
 12 49  1  0  0  0  0
 13 50  1  0  0  0  0
 13 52  1  0  0  0  0
 13 53  1  0  0  0  0
 14 15  1  0  0  0  0
 14 17  2  0  0  0  0
 15 16  2  0  0  0  0
 15 20  1  0  0  0  0
 16 19  1  0  0  0  0
 16 22  1  0  0  0  0
 17 18  1  0  0  0  0
 18 19  2  0  0  0  0
 18 23  1  0  0  0  0
 19 26  1  0  0  0  0
 20 21  1  0  0  0  0
 20 27  2  0  0  0  0
 21 28  2  0  0  0  0
 22 56  1  0  0  0  0
 22 57  1  0  0  0  0
 23 25  1  0  0  0  0
 23 30  2  0  0  0  0
 24 29  1  0  0  0  0
 24 58  1  0  0  0  0
 24 59  1  0  0  0  0
 25 31  2  0  0  0  0
 27 32  1  0  0  0  0
 27 62  1  0  0  0  0
 28 33  1  0  0  0  0
 28 63  1  0  0  0  0
 29 36  1  0  0  0  0
 29 64  1  0  0  0  0
 29 65  1  0  0  0  0
 30 34  1  0  0  0  0
 30 66  1  0  0  0  0
 31 35  1  0  0  0  0
 31 67  1  0  0  0  0
 32 33  2  0  0  0  0
 32 68  1  0  0  0  0
 33 69  1  0  0  0  0
 34 35  2  0  0  0  0
 34 70  1  0  0  0  0
 35 71  1  0  0  0  0
 37 38  1  0  0  0  0
 37 39  2  0  0  0  0
 38 40  2  0  0  0  0
 38 73  1  0  0  0  0
 39 74  1  0  0  0  0
 40 41  1  0  0  0  0
 41 42  1  0  0  0  0
 42 45  1  0  0  0  0
 42 46  2  0  0  0  0
 43 75  1  0  0  0  0
 43 76  1  0  0  0  0
 43 77  1  0  0  0  0
 44 45  2  0  0  0  0
 44 47  1  0  0  0  0
 45 78  1  0  0  0  0
 46 79  1  0  0  0  0
 47 48  1  0  0  0  0
 48 50  2  0  0  0  0
 48 51  1  0  0  0  0
 49 80  1  0  0  0  0
 49 81  1  0  0  0  0
 49 82  1  0  0  0  0
 50 83  1  0  0  0  0
 51 52  2  0  0  0  0
 51 84  1  0  0  0  0
 52 54  1  0  0  0  0
 53 85  1  0  0  0  0
 53 86  1  0  0  0  0
 53 87  1  0  0  0  0
 55 88  1  0  0  0  0
 55 89  1  0  0  0  0
 55 90  1  0  0  0  0
M  END
> <PUBCHEM_COMPOUND_CID>
44328911

> <PUBCHEM_COMPOUND_CANONICALIZED>
1

> <PUBCHEM_CACTVS_COMPLEXITY>
1540

> <PUBCHEM_CACTVS_HBOND_ACCEPTOR>
6

> <PUBCHEM_CACTVS_HBOND_DONOR>
3

> <PUBCHEM_CACTVS_ROTATABLE_BOND>
10

> <PUBCHEM_CACTVS_SUBSKEYS>
AAADcfB/uAAAAAAAAAAAAAAAAAAAAWLFixYwYMAAAAAAAFgB/gAAHgAQAAAADAzBngY+yPPNlACoA7X3XASCgCQ3EiAI2aG4fNgKZvrA9fmVNYhk1gHY6cec3+K+yAACQAASACCQAASAACQAQAAAAAAAAA==

> <PUBCHEM_IUPAC_OPENEYE_NAME>
methyl 1-methyl-4-[1-methyl-4-[1-methyl-4-[3-(14-oxo-3,13,23-triazahexacyclo[14.7.0.02,10.04,9.011,15.017,22]tricosa-1,4,6,8,10,15,17,19,21-nonaen-3-yl)propanoylamino]pyrrole-2-carbonyl]pyrrole-2-carbonyl]pyrrole-2-carboxylate

> <PUBCHEM_IUPAC_CAS_NAME>
1-methyl-4-[[1-methyl-4-[[1-methyl-4-[[1-oxo-3-(14-oxo-3,13,23-triazahexacyclo[14.7.0.02,10.04,9.011,15.017,22]tricosa-1,4,6,8,10,15,17,19,21-nonaen-3-yl)propyl]amino]-2-pyrrolyl]-oxomethyl]-2-pyrrolyl]-oxomethyl]-2-pyrrolecarboxylic acid methyl ester

> <PUBCHEM_IUPAC_NAME_MARKUP>
methyl 1-methyl-4-[1-methyl-4-[1-methyl-4-[3-(14-oxo-3,13,23-triazahexacyclo[14.7.0.0<SUP>2,10</SUP>.0<SUP>4,9</SUP>.0<SUP>11,15</SUP>.0<SUP>17,22</SUP>]tricosa-1,4,6,8,10,15,17,19,21-nonaen-3-yl)propanoylamino]pyrrole-2-carbonyl]pyrrole-2-carbonyl]pyrrole-2-carboxylate

> <PUBCHEM_IUPAC_NAME>
methyl 1-methyl-4-[1-methyl-4-[1-methyl-4-[3-(14-oxo-3,13,23-triazahexacyclo[14.7.0.02,10.04,9.011,15.017,22]tricosa-1,4,6,8,10,15,17,19,21-nonaen-3-yl)propanoylamino]pyrrole-2-carbonyl]pyrrole-2-carbonyl]pyrrole-2-carboxylate

> <PUBCHEM_IUPAC_SYSTEMATIC_NAME>
methyl 1-methyl-4-[1-methyl-4-[1-methyl-4-[3-(14-oxidanylidene-3,13,23-triazahexacyclo[14.7.0.02,10.04,9.011,15.017,22]tricosa-1,4,6,8,10,15,17,19,21-nonaen-3-yl)propanoylamino]pyrrol-2-yl]carbonyl-pyrrol-2-yl]carbonyl-pyrrole-2-carboxylate

> <PUBCHEM_IUPAC_TRADITIONAL_NAME>
4-[4-[4-[3-(14-keto-3,13,23-triazahexacyclo[14.7.0.02,10.04,9.011,15.017,22]tricosa-1,4,6,8,10,15,17,19,21-nonaen-3-yl)propanoylamino]-1-methyl-pyrrole-2-carbonyl]-1-methyl-pyrrole-2-carbonyl]-1-methyl-pyrrole-2-carboxylic acid methyl ester

> <PUBCHEM_IUPAC_INCHI>
InChI=1S/C42H35N7O6/c1-46-19-22(15-30(46)39(51)23-16-32(42(54)55-4)47(2)20-23)40(52)31-17-24(21-48(31)3)44-33(50)13-14-49-29-12-8-6-10-26(29)34-27-18-43-41(53)36(27)35-25-9-5-7-11-28(25)45-37(35)38(34)49/h5-12,15-17,19-21,45H,13-14,18H2,1-4H3,(H,43,53)(H,44,50)

> <PUBCHEM_IUPAC_INCHIKEY>
RPLXVENRWORMRX-UHFFFAOYSA-N

> <PUBCHEM_XLOGP3_AA>
4.2

> <PUBCHEM_EXACT_MASS>
733.26488186

> <PUBCHEM_MOLECULAR_FORMULA>
C42H35N7O6

> <PUBCHEM_MOLECULAR_WEIGHT>
733.8

> <PUBCHEM_SMILES>
CN1C=C(C=C1C(=O)C2=CN(C(=C2)C(=O)OC)C)C(=O)C3=CC(=CN3C)NC(=O)CCN4C5=CC=CC=C5C6=C7CNC(=O)C7=C8C9=CC=CC=C9NC8=C64

> <PUBCHEM_OPENEYE_CAN_SMILES>
CN1C=C(C=C1C(=O)C2=CN(C(=C2)C(=O)OC)C)C(=O)C3=CC(=CN3C)NC(=O)CCN4C5=CC=CC=C5C6=C7CNC(=O)C7=C8C9=CC=CC=C9NC8=C64

> <PUBCHEM_OPENEYE_ISO_SMILES>
CN1C=C(C=C1C(=O)C2=CN(C(=C2)C(=O)OC)C)C(=O)C3=CC(=CN3C)NC(=O)CCN4C5=CC=CC=C5C6=C7CNC(=O)C7=C8C9=CC=CC=C9NC8=C64

> <PUBCHEM_CACTVS_TPSA>
154

> <PUBCHEM_MONOISOTOPIC_WEIGHT>
733.26488186

> <PUBCHEM_TOTAL_CHARGE>
0

> <PUBCHEM_HEAVY_ATOM_COUNT>
55

> <PUBCHEM_ATOM_DEF_STEREO_COUNT>
0

> <PUBCHEM_ATOM_UDEF_STEREO_COUNT>
0

> <PUBCHEM_BOND_DEF_STEREO_COUNT>
0

> <PUBCHEM_BOND_UDEF_STEREO_COUNT>
0

> <PUBCHEM_ISOTOPIC_ATOM_COUNT>
0

> <PUBCHEM_COMPONENT_COUNT>
1

> <PUBCHEM_CACTVS_TAUTO_COUNT>
-1

> <PUBCHEM_COORDINATE_TYPE>
1
5
255

> <PUBCHEM_BONDANNOTATIONS>
11  39  8
11  40  8
12  44  8
12  46  8
13  50  8
13  52  8
14  15  8
14  17  8
15  16  8
15  20  8
16  19  8
17  18  8
18  19  8
18  23  8
20  21  8
20  27  8
21  28  8
23  25  8
23  30  8
25  31  8
27  32  8
28  33  8
30  34  8
31  35  8
32  33  8
34  35  8
37  38  8
37  39  8
38  40  8
42  45  8
42  46  8
44  45  8
48  50  8
48  51  8
51  52  8
7  14  8
7  21  8
8  17  8
8  25  8

$$$$
