18451073
  -OEChem-03202501102D

 52 56  0     0  0  0  0  0  0999 V2000
    4.6783   -2.3478    0.0000 S   0  0  0  0  0  0  0  0  0  0  0  0
    7.5673    2.5257    0.0000 O   0  0  0  0  0  0  0  0  0  0  0  0
    2.0000   -1.0430    0.0000 N   0  0  0  0  0  0  0  0  0  0  0  0
    2.8660    0.4570    0.0000 N   0  0  0  0  0  0  0  0  0  0  0  0
    5.9209    3.0638    0.0000 N   0  0  0  0  0  0  0  0  0  0  0  0
    2.3660   -5.0819    0.0000 N   0  0  0  0  0  0  0  0  0  0  0  0
    3.3660   -5.0819    0.0000 N   0  0  0  0  0  0  0  0  0  0  0  0
    7.2101    4.2205    0.0000 N   0  0  0  0  0  0  0  0  0  0  0  0
    3.7320   -1.0430    0.0000 C   0  0  0  0  0  0  0  0  0  0  0  0
    4.6783   -0.7383    0.0000 C   0  0  0  0  0  0  0  0  0  0  0  0
    3.7320   -2.0430    0.0000 C   0  0  0  0  0  0  0  0  0  0  0  0
    2.8660   -2.5430    0.0000 C   0  0  0  0  0  0  0  0  0  0  0  0
    4.9889    0.2122    0.0000 C   0  0  0  0  0  0  0  0  0  0  0  0
    2.8660   -0.5430    0.0000 C   0  0  0  0  0  0  0  0  0  0  0  0
    5.2619   -1.5430    0.0000 C   0  0  0  0  0  0  0  0  0  0  0  0
    2.8660   -3.5430    0.0000 C   0  0  0  0  0  0  0  0  0  0  0  0
    2.0000   -2.0430    0.0000 C   0  0  0  0  0  0  0  0  0  0  0  0
    5.9674    0.4184    0.0000 C   0  0  0  0  0  0  0  0  0  0  0  0
    4.3211    0.9565    0.0000 C   0  0  0  0  0  0  0  0  0  0  0  0
    5.6103    2.1132    0.0000 C   0  0  0  0  0  0  0  0  0  0  0  0
    6.2781    1.3689    0.0000 C   0  0  0  0  0  0  0  0  0  0  0  0
    4.6318    1.9070    0.0000 C   0  0  0  0  0  0  0  0  0  0  0  0
    2.0570   -4.1308    0.0000 C   0  0  0  0  0  0  0  0  0  0  0  0
    3.6750   -4.1308    0.0000 C   0  0  0  0  0  0  0  0  0  0  0  0
    6.8994    3.2700    0.0000 C   0  0  0  0  0  0  0  0  0  0  0  0
    8.1886    4.4267    0.0000 C   0  0  0  0  0  0  0  0  0  0  0  0
    9.8349    3.8886    0.0000 C   0  0  0  0  0  0  0  0  0  0  0  0
    8.8564    3.6824    0.0000 C   0  0  0  0  0  0  0  0  0  0  0  0
    8.4993    5.3772    0.0000 C   0  0  0  0  0  0  0  0  0  0  0  0
   10.1456    4.8392    0.0000 C   0  0  0  0  0  0  0  0  0  0  0  0
    9.4778    5.5835    0.0000 C   0  0  0  0  0  0  0  0  0  0  0  0
   10.5028    3.1444    0.0000 C   0  0  0  0  0  0  0  0  0  0  0  0
    5.8819   -1.5430    0.0000 H   0  0  0  0  0  0  0  0  0  0  0  0
    1.4631   -2.3530    0.0000 H   0  0  0  0  0  0  0  0  0  0  0  0
    6.3815   -0.0430    0.0000 H   0  0  0  0  0  0  0  0  0  0  0  0
    3.7144    0.8287    0.0000 H   0  0  0  0  0  0  0  0  0  0  0  0
    6.8848    1.4968    0.0000 H   0  0  0  0  0  0  0  0  0  0  0  0
    4.2177    2.3685    0.0000 H   0  0  0  0  0  0  0  0  0  0  0  0
    1.4674   -3.9392    0.0000 H   0  0  0  0  0  0  0  0  0  0  0  0
    4.2647   -3.9392    0.0000 H   0  0  0  0  0  0  0  0  0  0  0  0
    2.3291    0.7670    0.0000 H   0  0  0  0  0  0  0  0  0  0  0  0
    3.4030    0.7670    0.0000 H   0  0  0  0  0  0  0  0  0  0  0  0
    5.5069    3.5252    0.0000 H   0  0  0  0  0  0  0  0  0  0  0  0
    2.0016   -5.5835    0.0000 H   0  0  0  0  0  0  0  0  0  0  0  0
    6.7960    4.6820    0.0000 H   0  0  0  0  0  0  0  0  0  0  0  0
    8.6638    3.0931    0.0000 H   0  0  0  0  0  0  0  0  0  0  0  0
    8.0852    5.8387    0.0000 H   0  0  0  0  0  0  0  0  0  0  0  0
   10.7523    4.9670    0.0000 H   0  0  0  0  0  0  0  0  0  0  0  0
    9.6704    6.1728    0.0000 H   0  0  0  0  0  0  0  0  0  0  0  0
   10.0413    2.7303    0.0000 H   0  0  0  0  0  0  0  0  0  0  0  0
   10.9169    2.6829    0.0000 H   0  0  0  0  0  0  0  0  0  0  0  0
   10.9643    3.5584    0.0000 H   0  0  0  0  0  0  0  0  0  0  0  0
  1 11  1  0  0  0  0
  1 15  1  0  0  0  0
  2 25  2  0  0  0  0
  3 14  2  0  0  0  0
  3 17  1  0  0  0  0
  4 14  1  0  0  0  0
  4 41  1  0  0  0  0
  4 42  1  0  0  0  0
  5 20  1  0  0  0  0
  5 25  1  0  0  0  0
  5 43  1  0  0  0  0
  6  7  1  0  0  0  0
  6 23  1  0  0  0  0
  6 44  1  0  0  0  0
  7 24  2  0  0  0  0
  8 25  1  0  0  0  0
  8 26  1  0  0  0  0
  8 45  1  0  0  0  0
  9 10  1  0  0  0  0
  9 11  2  0  0  0  0
  9 14  1  0  0  0  0
 10 13  1  0  0  0  0
 10 15  2  0  0  0  0
 11 12  1  0  0  0  0
 12 16  1  0  0  0  0
 12 17  2  0  0  0  0
 13 18  2  0  0  0  0
 13 19  1  0  0  0  0
 15 33  1  0  0  0  0
 16 23  2  0  0  0  0
 16 24  1  0  0  0  0
 17 34  1  0  0  0  0
 18 21  1  0  0  0  0
 18 35  1  0  0  0  0
 19 22  2  0  0  0  0
 19 36  1  0  0  0  0
 20 21  2  0  0  0  0
 20 22  1  0  0  0  0
 21 37  1  0  0  0  0
 22 38  1  0  0  0  0
 23 39  1  0  0  0  0
 24 40  1  0  0  0  0
 26 28  1  0  0  0  0
 26 29  2  0  0  0  0
 27 28  2  0  0  0  0
 27 30  1  0  0  0  0
 27 32  1  0  0  0  0
 28 46  1  0  0  0  0
 29 31  1  0  0  0  0
 29 47  1  0  0  0  0
 30 31  2  0  0  0  0
 30 48  1  0  0  0  0
 31 49  1  0  0  0  0
 32 50  1  0  0  0  0
 32 51  1  0  0  0  0
 32 52  1  0  0  0  0
M  END
> <PUBCHEM_COMPOUND_CID>
18451073

> <PUBCHEM_COMPOUND_CANONICALIZED>
1

> <PUBCHEM_CACTVS_COMPLEXITY>
644

> <PUBCHEM_CACTVS_HBOND_ACCEPTOR>
5

> <PUBCHEM_CACTVS_HBOND_DONOR>
4

> <PUBCHEM_CACTVS_ROTATABLE_BOND>
4

> <PUBCHEM_CACTVS_SUBSKEYS>
AAADceB7oABAAAAAAAAAAAAAAAAAAWJAAAA8YIAAAAAAAFgB/gAAHgQYAAAADAjFWgS/8dLrEAiuAjZndACThKkxijAY+bAoZJiIIOLg0dGEpAxonALoyCcQgMAOiAAAQAAAAAAQAACAAAAAAAAAAAAAAA==

> <PUBCHEM_IUPAC_OPENEYE_NAME>
1-[4-[4-amino-7-(1H-pyrazol-4-yl)thieno[3,2-c]pyridin-3-yl]phenyl]-3-(m-tolyl)urea

> <PUBCHEM_IUPAC_CAS_NAME>
1-[4-[4-amino-7-(1H-pyrazol-4-yl)-3-thieno[3,2-c]pyridinyl]phenyl]-3-(3-methylphenyl)urea

> <PUBCHEM_IUPAC_NAME_MARKUP>
1-[4-[4-amino-7-(1<I>H</I>-pyrazol-4-yl)thieno[3,2-c]pyridin-3-yl]phenyl]-3-(3-methylphenyl)urea

> <PUBCHEM_IUPAC_NAME>
1-[4-[4-amino-7-(1H-pyrazol-4-yl)thieno[3,2-c]pyridin-3-yl]phenyl]-3-(3-methylphenyl)urea

> <PUBCHEM_IUPAC_SYSTEMATIC_NAME>
1-[4-[4-azanyl-7-(1H-pyrazol-4-yl)thieno[3,2-c]pyridin-3-yl]phenyl]-3-(3-methylphenyl)urea

> <PUBCHEM_IUPAC_TRADITIONAL_NAME>
1-[4-[4-amino-7-(1H-pyrazol-4-yl)thieno[3,2-c]pyridin-3-yl]phenyl]-3-(m-tolyl)urea

> <PUBCHEM_IUPAC_INCHI>
InChI=1S/C24H20N6OS/c1-14-3-2-4-18(9-14)30-24(31)29-17-7-5-15(6-8-17)20-13-32-22-19(16-10-27-28-11-16)12-26-23(25)21(20)22/h2-13H,1H3,(H2,25,26)(H,27,28)(H2,29,30,31)

> <PUBCHEM_IUPAC_INCHIKEY>
UGEJLCNSVIVALC-UHFFFAOYSA-N

> <PUBCHEM_XLOGP3_AA>
4

> <PUBCHEM_EXACT_MASS>
440.14193046

> <PUBCHEM_MOLECULAR_FORMULA>
C24H20N6OS

> <PUBCHEM_MOLECULAR_WEIGHT>
440.5

> <PUBCHEM_SMILES>
CC1=CC(=CC=C1)NC(=O)NC2=CC=C(C=C2)C3=CSC4=C3C(=NC=C4C5=CNN=C5)N

> <PUBCHEM_OPENEYE_CAN_SMILES>
CC1=CC(=CC=C1)NC(=O)NC2=CC=C(C=C2)C3=CSC4=C3C(=NC=C4C5=CNN=C5)N

> <PUBCHEM_OPENEYE_ISO_SMILES>
CC1=CC(=CC=C1)NC(=O)NC2=CC=C(C=C2)C3=CSC4=C3C(=NC=C4C5=CNN=C5)N

> <PUBCHEM_CACTVS_TPSA>
137

> <PUBCHEM_MONOISOTOPIC_WEIGHT>
440.14193046

> <PUBCHEM_TOTAL_CHARGE>
0

> <PUBCHEM_HEAVY_ATOM_COUNT>
32

> <PUBCHEM_ATOM_DEF_STEREO_COUNT>
0

> <PUBCHEM_ATOM_UDEF_STEREO_COUNT>
0

> <PUBCHEM_BOND_DEF_STEREO_COUNT>
0

> <PUBCHEM_BOND_UDEF_STEREO_COUNT>
0

> <PUBCHEM_ISOTOPIC_ATOM_COUNT>
0

> <PUBCHEM_COMPONENT_COUNT>
1

> <PUBCHEM_CACTVS_TAUTO_COUNT>
-1

> <PUBCHEM_COORDINATE_TYPE>
1
5
255

> <PUBCHEM_BONDANNOTATIONS>
1  11  8
1  15  8
10  15  8
11  12  8
12  17  8
13  18  8
13  19  8
16  23  8
16  24  8
18  21  8
19  22  8
20  21  8
20  22  8
26  28  8
26  29  8
27  28  8
27  30  8
29  31  8
3  14  8
3  17  8
30  31  8
6  23  8
6  7  8
7  24  8
9  10  8
9  11  8
9  14  8

$$$$
