49830359
  -OEChem-03202501182D

 52 56  0     0  0  0  0  0  0999 V2000
    4.9000   -2.1941    0.0000 S   0  0  0  0  0  0  0  0  0  0  0  0
   10.7245    3.2981    0.0000 F   0  0  0  0  0  0  0  0  0  0  0  0
    7.7890    2.6794    0.0000 O   0  0  0  0  0  0  0  0  0  0  0  0
    2.2218   -0.8893    0.0000 N   0  0  0  0  0  0  0  0  0  0  0  0
    2.5878   -4.9282    0.0000 N   0  0  0  0  0  0  0  0  0  0  0  0
    3.0878    0.6107    0.0000 N   0  0  0  0  0  0  0  0  0  0  0  0
    3.5878   -4.9282    0.0000 N   0  0  0  0  0  0  0  0  0  0  0  0
    6.1427    3.2175    0.0000 N   0  0  0  0  0  0  0  0  0  0  0  0
    7.4318    4.3742    0.0000 N   0  0  0  0  0  0  0  0  0  0  0  0
    3.9538   -0.8893    0.0000 C   0  0  0  0  0  0  0  0  0  0  0  0
    3.9538   -1.8893    0.0000 C   0  0  0  0  0  0  0  0  0  0  0  0
    4.9000   -0.5846    0.0000 C   0  0  0  0  0  0  0  0  0  0  0  0
    3.0878   -2.3893    0.0000 C   0  0  0  0  0  0  0  0  0  0  0  0
    5.2107    0.3659    0.0000 C   0  0  0  0  0  0  0  0  0  0  0  0
    3.0878   -0.3893    0.0000 C   0  0  0  0  0  0  0  0  0  0  0  0
    3.0878   -3.3893    0.0000 C   0  0  0  0  0  0  0  0  0  0  0  0
    5.4836   -1.3893    0.0000 C   0  0  0  0  0  0  0  0  0  0  0  0
    2.2218   -1.8893    0.0000 C   0  0  0  0  0  0  0  0  0  0  0  0
    4.5428    1.1102    0.0000 C   0  0  0  0  0  0  0  0  0  0  0  0
    6.1892    0.5721    0.0000 C   0  0  0  0  0  0  0  0  0  0  0  0
    2.2788   -3.9771    0.0000 C   0  0  0  0  0  0  0  0  0  0  0  0
    3.8968   -3.9771    0.0000 C   0  0  0  0  0  0  0  0  0  0  0  0
    5.8320    2.2670    0.0000 C   0  0  0  0  0  0  0  0  0  0  0  0
    4.8535    2.0608    0.0000 C   0  0  0  0  0  0  0  0  0  0  0  0
    6.4999    1.5227    0.0000 C   0  0  0  0  0  0  0  0  0  0  0  0
    2.0000   -5.7372    0.0000 C   0  0  0  0  0  0  0  0  0  0  0  0
    7.1212    3.4237    0.0000 C   0  0  0  0  0  0  0  0  0  0  0  0
    8.4104    4.5804    0.0000 C   0  0  0  0  0  0  0  0  0  0  0  0
    9.0782    3.8361    0.0000 C   0  0  0  0  0  0  0  0  0  0  0  0
    8.7210    5.5310    0.0000 C   0  0  0  0  0  0  0  0  0  0  0  0
   10.0567    4.0424    0.0000 C   0  0  0  0  0  0  0  0  0  0  0  0
    9.6995    5.7372    0.0000 C   0  0  0  0  0  0  0  0  0  0  0  0
   10.3674    4.9929    0.0000 C   0  0  0  0  0  0  0  0  0  0  0  0
    6.1036   -1.3893    0.0000 H   0  0  0  0  0  0  0  0  0  0  0  0
    1.6848   -2.1993    0.0000 H   0  0  0  0  0  0  0  0  0  0  0  0
    3.9362    0.9824    0.0000 H   0  0  0  0  0  0  0  0  0  0  0  0
    6.6033    0.1107    0.0000 H   0  0  0  0  0  0  0  0  0  0  0  0
    1.6891   -3.7855    0.0000 H   0  0  0  0  0  0  0  0  0  0  0  0
    4.4865   -3.7855    0.0000 H   0  0  0  0  0  0  0  0  0  0  0  0
    4.4394    2.5222    0.0000 H   0  0  0  0  0  0  0  0  0  0  0  0
    7.1065    1.6505    0.0000 H   0  0  0  0  0  0  0  0  0  0  0  0
    2.5508    0.9207    0.0000 H   0  0  0  0  0  0  0  0  0  0  0  0
    3.6247    0.9207    0.0000 H   0  0  0  0  0  0  0  0  0  0  0  0
    5.7286    3.6790    0.0000 H   0  0  0  0  0  0  0  0  0  0  0  0
    1.4984   -5.3728    0.0000 H   0  0  0  0  0  0  0  0  0  0  0  0
    1.6356   -6.2388    0.0000 H   0  0  0  0  0  0  0  0  0  0  0  0
    2.5016   -6.1016    0.0000 H   0  0  0  0  0  0  0  0  0  0  0  0
    7.0178    4.8357    0.0000 H   0  0  0  0  0  0  0  0  0  0  0  0
    8.8856    3.2468    0.0000 H   0  0  0  0  0  0  0  0  0  0  0  0
    8.3070    5.9924    0.0000 H   0  0  0  0  0  0  0  0  0  0  0  0
    9.8921    6.3265    0.0000 H   0  0  0  0  0  0  0  0  0  0  0  0
   10.9740    5.1207    0.0000 H   0  0  0  0  0  0  0  0  0  0  0  0
  1 11  1  0  0  0  0
  1 17  1  0  0  0  0
  2 31  1  0  0  0  0
  3 27  2  0  0  0  0
  4 15  2  0  0  0  0
  4 18  1  0  0  0  0
  5  7  1  0  0  0  0
  5 21  1  0  0  0  0
  5 26  1  0  0  0  0
  6 15  1  0  0  0  0
  6 42  1  0  0  0  0
  6 43  1  0  0  0  0
  7 22  2  0  0  0  0
  8 23  1  0  0  0  0
  8 27  1  0  0  0  0
  8 44  1  0  0  0  0
  9 27  1  0  0  0  0
  9 28  1  0  0  0  0
  9 48  1  0  0  0  0
 10 11  2  0  0  0  0
 10 12  1  0  0  0  0
 10 15  1  0  0  0  0
 11 13  1  0  0  0  0
 12 14  1  0  0  0  0
 12 17  2  0  0  0  0
 13 16  1  0  0  0  0
 13 18  2  0  0  0  0
 14 19  2  0  0  0  0
 14 20  1  0  0  0  0
 16 21  2  0  0  0  0
 16 22  1  0  0  0  0
 17 34  1  0  0  0  0
 18 35  1  0  0  0  0
 19 24  1  0  0  0  0
 19 36  1  0  0  0  0
 20 25  2  0  0  0  0
 20 37  1  0  0  0  0
 21 38  1  0  0  0  0
 22 39  1  0  0  0  0
 23 24  2  0  0  0  0
 23 25  1  0  0  0  0
 24 40  1  0  0  0  0
 25 41  1  0  0  0  0
 26 45  1  0  0  0  0
 26 46  1  0  0  0  0
 26 47  1  0  0  0  0
 28 29  2  0  0  0  0
 28 30  1  0  0  0  0
 29 31  1  0  0  0  0
 29 49  1  0  0  0  0
 30 32  2  0  0  0  0
 30 50  1  0  0  0  0
 31 33  2  0  0  0  0
 32 33  1  0  0  0  0
 32 51  1  0  0  0  0
 33 52  1  0  0  0  0
M  END
> <PUBCHEM_COMPOUND_CID>
49830359

> <PUBCHEM_COMPOUND_CANONICALIZED>
1

> <PUBCHEM_CACTVS_COMPLEXITY>
679

> <PUBCHEM_CACTVS_HBOND_ACCEPTOR>
6

> <PUBCHEM_CACTVS_HBOND_DONOR>
3

> <PUBCHEM_CACTVS_ROTATABLE_BOND>
4

> <PUBCHEM_CACTVS_SUBSKEYS>
AAADceB7oQBAAAAAAAAAAAAAAAAAAWJAAAA8YIAAAAAAAFgB/gAAHwQYAAAADAjFWgy/8dLIEAiuAjZndACThKkxijAY2DAoZJiIIOLg0dGEpAxonALoyCcQgMAOiAAAAAAAAAAQAAAAAAAAAAAAAAAAAA==

> <PUBCHEM_IUPAC_OPENEYE_NAME>
1-[4-[4-amino-7-(1-methylpyrazol-4-yl)thieno[3,2-c]pyridin-3-yl]phenyl]-3-(3-fluorophenyl)urea

> <PUBCHEM_IUPAC_CAS_NAME>
1-[4-[4-amino-7-(1-methyl-4-pyrazolyl)-3-thieno[3,2-c]pyridinyl]phenyl]-3-(3-fluorophenyl)urea

> <PUBCHEM_IUPAC_NAME_MARKUP>
1-[4-[4-amino-7-(1-methylpyrazol-4-yl)thieno[3,2-c]pyridin-3-yl]phenyl]-3-(3-fluorophenyl)urea

> <PUBCHEM_IUPAC_NAME>
1-[4-[4-amino-7-(1-methylpyrazol-4-yl)thieno[3,2-c]pyridin-3-yl]phenyl]-3-(3-fluorophenyl)urea

> <PUBCHEM_IUPAC_SYSTEMATIC_NAME>
1-[4-[4-azanyl-7-(1-methylpyrazol-4-yl)thieno[3,2-c]pyridin-3-yl]phenyl]-3-(3-fluorophenyl)urea

> <PUBCHEM_IUPAC_TRADITIONAL_NAME>
1-[4-[4-amino-7-(1-methylpyrazol-4-yl)thieno[3,2-c]pyridin-3-yl]phenyl]-3-(3-fluorophenyl)urea

> <PUBCHEM_IUPAC_INCHI>
InChI=1S/C24H19FN6OS/c1-31-12-15(10-28-31)19-11-27-23(26)21-20(13-33-22(19)21)14-5-7-17(8-6-14)29-24(32)30-18-4-2-3-16(25)9-18/h2-13H,1H3,(H2,26,27)(H2,29,30,32)

> <PUBCHEM_IUPAC_INCHIKEY>
ZCCJKVBTHCOISJ-UHFFFAOYSA-N

> <PUBCHEM_XLOGP3_AA>
3.7

> <PUBCHEM_EXACT_MASS>
458.13250859

> <PUBCHEM_MOLECULAR_FORMULA>
C24H19FN6OS

> <PUBCHEM_MOLECULAR_WEIGHT>
458.5

> <PUBCHEM_SMILES>
CN1C=C(C=N1)C2=CN=C(C3=C2SC=C3C4=CC=C(C=C4)NC(=O)NC5=CC(=CC=C5)F)N

> <PUBCHEM_OPENEYE_CAN_SMILES>
CN1C=C(C=N1)C2=CN=C(C3=C2SC=C3C4=CC=C(C=C4)NC(=O)NC5=CC(=CC=C5)F)N

> <PUBCHEM_OPENEYE_ISO_SMILES>
CN1C=C(C=N1)C2=CN=C(C3=C2SC=C3C4=CC=C(C=C4)NC(=O)NC5=CC(=CC=C5)F)N

> <PUBCHEM_CACTVS_TPSA>
126

> <PUBCHEM_MONOISOTOPIC_WEIGHT>
458.13250859

> <PUBCHEM_TOTAL_CHARGE>
0

> <PUBCHEM_HEAVY_ATOM_COUNT>
33

> <PUBCHEM_ATOM_DEF_STEREO_COUNT>
0

> <PUBCHEM_ATOM_UDEF_STEREO_COUNT>
0

> <PUBCHEM_BOND_DEF_STEREO_COUNT>
0

> <PUBCHEM_BOND_UDEF_STEREO_COUNT>
0

> <PUBCHEM_ISOTOPIC_ATOM_COUNT>
0

> <PUBCHEM_COMPONENT_COUNT>
1

> <PUBCHEM_CACTVS_TAUTO_COUNT>
-1

> <PUBCHEM_COORDINATE_TYPE>
1
5
255

> <PUBCHEM_BONDANNOTATIONS>
1  11  8
1  17  8
10  11  8
10  12  8
10  15  8
11  13  8
12  17  8
13  18  8
14  19  8
14  20  8
16  21  8
16  22  8
19  24  8
20  25  8
23  24  8
23  25  8
28  29  8
28  30  8
29  31  8
30  32  8
31  33  8
32  33  8
4  15  8
4  18  8
5  21  8
5  7  8
7  22  8

$$$$
