16109036
  -OEChem-03202506022D

 64 67  0     1  0  0  0  0  0999 V2000
    8.9651   -5.2430    0.0000 F   0  0  0  0  0  0  0  0  0  0  0  0
   10.3312   -4.8770    0.0000 F   0  0  0  0  0  0  0  0  0  0  0  0
    9.9651   -3.5110    0.0000 F   0  0  0  0  0  0  0  0  0  0  0  0
   10.3312    0.1230    0.0000 F   0  0  0  0  0  0  0  0  0  0  0  0
    9.4651   -1.3770    0.0000 O   0  0  0  0  0  0  0  0  0  0  0  0
    6.0010   -2.3770    0.0000 N   0  0  3  0  0  0  0  0  0  0  0  0
    5.1350    0.1230    0.0000 N   0  0  0  0  0  0  0  0  0  0  0  0
    7.7331   -1.3770    0.0000 N   0  0  0  0  0  0  0  0  0  0  0  0
    3.4030    3.1230    0.0000 N   0  0  0  0  0  0  0  0  0  0  0  0
    4.2690    4.6230    0.0000 N   0  0  0  0  0  0  0  0  0  0  0  0
    2.5369    4.6230    0.0000 N   0  0  0  0  0  0  0  0  0  0  0  0
    5.1350   -0.8770    0.0000 C   0  0  1  0  0  0  0  0  0  0  0  0
    4.2690   -1.3770    0.0000 C   0  0  0  0  0  0  0  0  0  0  0  0
    6.0010   -1.3770    0.0000 C   0  0  0  0  0  0  0  0  0  0  0  0
    4.2690   -2.3770    0.0000 C   0  0  0  0  0  0  0  0  0  0  0  0
    5.1350   -2.8770    0.0000 C   0  0  0  0  0  0  0  0  0  0  0  0
    6.8671   -2.8770    0.0000 C   0  0  0  0  0  0  0  0  0  0  0  0
    4.2690    0.6230    0.0000 C   0  0  0  0  0  0  0  0  0  0  0  0
    6.0010    0.6230    0.0000 C   0  0  0  0  0  0  0  0  0  0  0  0
    7.7331   -2.3770    0.0000 C   0  0  0  0  0  0  0  0  0  0  0  0
    6.8671   -3.8770    0.0000 C   0  0  0  0  0  0  0  0  0  0  0  0
    8.5991   -2.8770    0.0000 C   0  0  0  0  0  0  0  0  0  0  0  0
    7.7331   -4.3770    0.0000 C   0  0  0  0  0  0  0  0  0  0  0  0
    8.5991   -3.8770    0.0000 C   0  0  0  0  0  0  0  0  0  0  0  0
    9.4651   -4.3770    0.0000 C   0  0  0  0  0  0  0  0  0  0  0  0
    8.5991   -0.8770    0.0000 C   0  0  0  0  0  0  0  0  0  0  0  0
    8.5991    0.1230    0.0000 C   0  0  0  0  0  0  0  0  0  0  0  0
    7.7331    0.6230    0.0000 C   0  0  0  0  0  0  0  0  0  0  0  0
    9.4651    0.6230    0.0000 C   0  0  0  0  0  0  0  0  0  0  0  0
    7.7331    1.6230    0.0000 C   0  0  0  0  0  0  0  0  0  0  0  0
    9.4651    1.6230    0.0000 C   0  0  0  0  0  0  0  0  0  0  0  0
    8.5991    2.1230    0.0000 C   0  0  0  0  0  0  0  0  0  0  0  0
    6.8671    2.1230    0.0000 C   0  0  0  0  0  0  0  0  0  0  0  0
    6.0010    2.6230    0.0000 C   0  0  0  0  0  0  0  0  0  0  0  0
    5.1350    3.1230    0.0000 C   0  0  0  0  0  0  0  0  0  0  0  0
    4.2690    2.6230    0.0000 C   0  0  0  0  0  0  0  0  0  0  0  0
    5.1350    4.1230    0.0000 C   0  0  0  0  0  0  0  0  0  0  0  0
    3.4030    4.1230    0.0000 C   0  0  0  0  0  0  0  0  0  0  0  0
    5.6720   -0.5670    0.0000 H   0  0  0  0  0  0  0  0  0  0  0  0
    4.0569   -0.7944    0.0000 H   0  0  0  0  0  0  0  0  0  0  0  0
    3.6584   -1.4846    0.0000 H   0  0  0  0  0  0  0  0  0  0  0  0
    6.6116   -1.4846    0.0000 H   0  0  0  0  0  0  0  0  0  0  0  0
    6.2131   -0.7944    0.0000 H   0  0  0  0  0  0  0  0  0  0  0  0
    3.6584   -2.2693    0.0000 H   0  0  0  0  0  0  0  0  0  0  0  0
    4.0569   -2.9596    0.0000 H   0  0  0  0  0  0  0  0  0  0  0  0
    4.7365   -3.3519    0.0000 H   0  0  0  0  0  0  0  0  0  0  0  0
    5.5335   -3.3519    0.0000 H   0  0  0  0  0  0  0  0  0  0  0  0
    4.5790    1.1600    0.0000 H   0  0  0  0  0  0  0  0  0  0  0  0
    3.7320    0.9330    0.0000 H   0  0  0  0  0  0  0  0  0  0  0  0
    3.9590    0.0861    0.0000 H   0  0  0  0  0  0  0  0  0  0  0  0
    6.3110    0.0861    0.0000 H   0  0  0  0  0  0  0  0  0  0  0  0
    6.5380    0.9330    0.0000 H   0  0  0  0  0  0  0  0  0  0  0  0
    5.6910    1.1600    0.0000 H   0  0  0  0  0  0  0  0  0  0  0  0
    6.3301   -4.1870    0.0000 H   0  0  0  0  0  0  0  0  0  0  0  0
    9.1360   -2.5670    0.0000 H   0  0  0  0  0  0  0  0  0  0  0  0
    7.7331   -4.9970    0.0000 H   0  0  0  0  0  0  0  0  0  0  0  0
    7.1962   -1.0670    0.0000 H   0  0  0  0  0  0  0  0  0  0  0  0
    7.1962    0.3130    0.0000 H   0  0  0  0  0  0  0  0  0  0  0  0
   10.0021    1.9330    0.0000 H   0  0  0  0  0  0  0  0  0  0  0  0
    8.5991    2.7430    0.0000 H   0  0  0  0  0  0  0  0  0  0  0  0
    4.2690    2.0030    0.0000 H   0  0  0  0  0  0  0  0  0  0  0  0
    5.6720    4.4330    0.0000 H   0  0  0  0  0  0  0  0  0  0  0  0
    2.5369    5.2430    0.0000 H   0  0  0  0  0  0  0  0  0  0  0  0
    2.0000    4.3130    0.0000 H   0  0  0  0  0  0  0  0  0  0  0  0
  1 25  1  0  0  0  0
  2 25  1  0  0  0  0
  3 25  1  0  0  0  0
  4 29  1  0  0  0  0
  5 26  2  0  0  0  0
  6 14  1  0  0  0  0
  6 16  1  0  0  0  0
  6 17  1  0  0  0  0
 12  7  1  6  0  0  0
  7 18  1  0  0  0  0
  7 19  1  0  0  0  0
  8 20  1  0  0  0  0
  8 26  1  0  0  0  0
  8 57  1  0  0  0  0
  9 36  2  0  0  0  0
  9 38  1  0  0  0  0
 10 37  1  0  0  0  0
 10 38  2  0  0  0  0
 11 38  1  0  0  0  0
 11 63  1  0  0  0  0
 11 64  1  0  0  0  0
 12 13  1  0  0  0  0
 12 14  1  0  0  0  0
 12 39  1  0  0  0  0
 13 15  1  0  0  0  0
 13 40  1  0  0  0  0
 13 41  1  0  0  0  0
 14 42  1  0  0  0  0
 14 43  1  0  0  0  0
 15 16  1  0  0  0  0
 15 44  1  0  0  0  0
 15 45  1  0  0  0  0
 16 46  1  0  0  0  0
 16 47  1  0  0  0  0
 17 20  2  0  0  0  0
 17 21  1  0  0  0  0
 18 48  1  0  0  0  0
 18 49  1  0  0  0  0
 18 50  1  0  0  0  0
 19 51  1  0  0  0  0
 19 52  1  0  0  0  0
 19 53  1  0  0  0  0
 20 22  1  0  0  0  0
 21 23  2  0  0  0  0
 21 54  1  0  0  0  0
 22 24  2  0  0  0  0
 22 55  1  0  0  0  0
 23 24  1  0  0  0  0
 23 56  1  0  0  0  0
 24 25  1  0  0  0  0
 26 27  1  0  0  0  0
 27 28  1  0  0  0  0
 27 29  2  0  0  0  0
 28 30  2  0  0  0  0
 28 58  1  0  0  0  0
 29 31  1  0  0  0  0
 30 32  1  0  0  0  0
 30 33  1  0  0  0  0
 31 32  2  0  0  0  0
 31 59  1  0  0  0  0
 32 60  1  0  0  0  0
 33 34  3  0  0  0  0
 34 35  1  0  0  0  0
 35 36  1  0  0  0  0
 35 37  2  0  0  0  0
 36 61  1  0  0  0  0
 37 62  1  0  0  0  0
M  END
> <PUBCHEM_COMPOUND_CID>
16109036

> <PUBCHEM_COMPOUND_CANONICALIZED>
1

> <PUBCHEM_CACTVS_COMPLEXITY>
865

> <PUBCHEM_CACTVS_HBOND_ACCEPTOR>
10

> <PUBCHEM_CACTVS_HBOND_DONOR>
2

> <PUBCHEM_CACTVS_ROTATABLE_BOND>
6

> <PUBCHEM_CACTVS_SUBSKEYS>
AAADceB7ocAAAAAAAAAAAAAAAAAAAAAAAAA8eIEAAAAAAAAB0AAAHwAQAAAADCjBmhw/0JfIEADoEjV3dAiCgCk1AqAJ2CEodNiIaLLA3dGUJQholALIyacYiECOCAACQAAAACAQAASAAAAAQAAAAAAAAA==

> <PUBCHEM_IUPAC_OPENEYE_NAME>
5-[2-(2-aminopyrimidin-5-yl)ethynyl]-N-[2-[(3S)-3-(dimethylamino)-1-piperidyl]-5-(trifluoromethyl)phenyl]-2-fluoro-benzamide

> <PUBCHEM_IUPAC_CAS_NAME>
5-[2-(2-amino-5-pyrimidinyl)ethynyl]-N-[2-[(3S)-3-(dimethylamino)-1-piperidinyl]-5-(trifluoromethyl)phenyl]-2-fluorobenzamide

> <PUBCHEM_IUPAC_NAME_MARKUP>
5-[2-(2-aminopyrimidin-5-yl)ethynyl]-<I>N</I>-[2-[(3<I>S</I>)-3-(dimethylamino)piperidin-1-yl]-5-(trifluoromethyl)phenyl]-2-fluorobenzamide

> <PUBCHEM_IUPAC_NAME>
5-[2-(2-aminopyrimidin-5-yl)ethynyl]-N-[2-[(3S)-3-(dimethylamino)piperidin-1-yl]-5-(trifluoromethyl)phenyl]-2-fluorobenzamide

> <PUBCHEM_IUPAC_SYSTEMATIC_NAME>
5-[2-(2-azanylpyrimidin-5-yl)ethynyl]-N-[2-[(3S)-3-(dimethylamino)piperidin-1-yl]-5-(trifluoromethyl)phenyl]-2-fluoranyl-benzamide

> <PUBCHEM_IUPAC_TRADITIONAL_NAME>
5-[2-(2-aminopyrimidin-5-yl)ethynyl]-N-[2-[(3S)-3-(dimethylamino)piperidino]-5-(trifluoromethyl)phenyl]-2-fluoro-benzamide

> <PUBCHEM_IUPAC_INCHI>
InChI=1S/C27H26F4N6O/c1-36(2)20-4-3-11-37(16-20)24-10-8-19(27(29,30)31)13-23(24)35-25(38)21-12-17(7-9-22(21)28)5-6-18-14-33-26(32)34-15-18/h7-10,12-15,20H,3-4,11,16H2,1-2H3,(H,35,38)(H2,32,33,34)/t20-/m0/s1

> <PUBCHEM_IUPAC_INCHIKEY>
GMVQPWCWWLPOQT-FQEVSTJZSA-N

> <PUBCHEM_XLOGP3_AA>
4.4

> <PUBCHEM_EXACT_MASS>
526.21042212

> <PUBCHEM_MOLECULAR_FORMULA>
C27H26F4N6O

> <PUBCHEM_MOLECULAR_WEIGHT>
526.5

> <PUBCHEM_SMILES>
CN(C)[C@H]1CCCN(C1)C2=C(C=C(C=C2)C(F)(F)F)NC(=O)C3=C(C=CC(=C3)C#CC4=CN=C(N=C4)N)F

> <PUBCHEM_OPENEYE_CAN_SMILES>
CN(C)C1CCCN(C1)C2=C(C=C(C=C2)C(F)(F)F)NC(=O)C3=C(C=CC(=C3)C#CC4=CN=C(N=C4)N)F

> <PUBCHEM_OPENEYE_ISO_SMILES>
CN(C)[C@H]1CCCN(C1)C2=C(C=C(C=C2)C(F)(F)F)NC(=O)C3=C(C=CC(=C3)C#CC4=CN=C(N=C4)N)F

> <PUBCHEM_CACTVS_TPSA>
87.4

> <PUBCHEM_MONOISOTOPIC_WEIGHT>
526.21042212

> <PUBCHEM_TOTAL_CHARGE>
0

> <PUBCHEM_HEAVY_ATOM_COUNT>
38

> <PUBCHEM_ATOM_DEF_STEREO_COUNT>
1

> <PUBCHEM_ATOM_UDEF_STEREO_COUNT>
0

> <PUBCHEM_BOND_DEF_STEREO_COUNT>
0

> <PUBCHEM_BOND_UDEF_STEREO_COUNT>
0

> <PUBCHEM_ISOTOPIC_ATOM_COUNT>
0

> <PUBCHEM_COMPONENT_COUNT>
1

> <PUBCHEM_CACTVS_TAUTO_COUNT>
-1

> <PUBCHEM_COORDINATE_TYPE>
1
5
255

> <PUBCHEM_BONDANNOTATIONS>
10  37  8
10  38  8
17  20  8
17  21  8
20  22  8
21  23  8
22  24  8
23  24  8
27  28  8
27  29  8
28  30  8
29  31  8
30  32  8
31  32  8
35  36  8
35  37  8
12  7  6
9  36  8
9  38  8

$$$$
