16747696
  -OEChem-03202505012D

 67 72  0     0  0  0  0  0  0999 V2000
    9.7214   -1.9497    0.0000 S   0  0  0  0  0  0  0  0  0  0  0  0
    3.3415    0.6180    0.0000 O   0  0  0  0  0  0  0  0  0  0  0  0
   13.6247   -3.1655    0.0000 O   0  0  0  0  0  0  0  0  0  0  0  0
    3.9815    2.5128    0.0000 N   0  0  0  0  0  0  0  0  0  0  0  0
    2.6605    4.0145    0.0000 N   0  0  0  0  0  0  0  0  0  0  0  0
    4.9825    0.0637    0.0000 N   0  0  0  0  0  0  0  0  0  0  0  0
    6.1571   -4.1519    0.0000 N   0  0  0  0  0  0  0  0  0  0  0  0
    7.1512   -4.1510    0.0000 N   0  0  0  0  0  0  0  0  0  0  0  0
    4.3015    3.4602    0.0000 C   0  0  0  0  0  0  0  0  0  0  0  0
    3.0010    2.3162    0.0000 C   0  0  0  0  0  0  0  0  0  0  0  0
    3.6410    4.2110    0.0000 C   0  0  0  0  0  0  0  0  0  0  0  0
    2.3405    3.0670    0.0000 C   0  0  0  0  0  0  0  0  0  0  0  0
    5.3474   -1.6684    0.0000 C   0  0  0  0  0  0  0  0  0  0  0  0
    6.3474   -1.6684    0.0000 C   0  0  0  0  0  0  0  0  0  0  0  0
    4.6420    1.7620    0.0000 C   0  0  0  0  0  0  0  0  0  0  0  0
    6.6565   -2.6195    0.0000 C   0  0  0  0  0  0  0  0  0  0  0  0
    5.0384   -2.6195    0.0000 C   0  0  0  0  0  0  0  0  0  0  0  0
    5.8474   -3.2073    0.0000 C   0  0  0  0  0  0  0  0  0  0  0  0
    4.6625   -0.8837    0.0000 C   0  0  0  0  0  0  0  0  0  0  0  0
    7.4592   -3.2059    0.0000 C   0  0  0  0  0  0  0  0  0  0  0  0
    4.3220    0.8145    0.0000 C   0  0  0  0  0  0  0  0  0  0  0  0
    2.0000    4.7653    0.0000 C   0  0  0  0  0  0  0  0  0  0  0  0
    4.0230   -2.8518    0.0000 C   0  0  0  0  0  0  0  0  0  0  0  0
    3.6420   -1.0924    0.0000 C   0  0  0  0  0  0  0  0  0  0  0  0
    3.3201   -2.0831    0.0000 C   0  0  0  0  0  0  0  0  0  0  0  0
    8.4108   -2.8985    0.0000 C   0  0  0  0  0  0  0  0  0  0  0  0
    9.2188   -3.4877    0.0000 C   0  0  0  0  0  0  0  0  0  0  0  0
    8.7214   -1.9480    0.0000 C   0  0  0  0  0  0  0  0  0  0  0  0
   10.0288   -2.9013    0.0000 C   0  0  0  0  0  0  0  0  0  0  0  0
   10.9793   -3.2120    0.0000 C   0  0  0  0  0  0  0  0  0  0  0  0
   11.9298   -3.5226    0.0000 C   0  0  0  0  0  0  0  0  0  0  0  0
   12.8804   -3.8333    0.0000 C   0  0  0  0  0  0  0  0  0  0  0  0
   14.5752   -3.4761    0.0000 C   0  0  0  0  0  0  0  0  0  0  0  0
   15.3195   -2.8083    0.0000 C   0  0  0  0  0  0  0  0  0  0  0  0
   14.7814   -4.4546    0.0000 C   0  0  0  0  0  0  0  0  0  0  0  0
   16.2700   -3.1189    0.0000 C   0  0  0  0  0  0  0  0  0  0  0  0
   15.7319   -4.7653    0.0000 C   0  0  0  0  0  0  0  0  0  0  0  0
   16.4762   -4.0974    0.0000 C   0  0  0  0  0  0  0  0  0  0  0  0
    4.8455    3.1628    0.0000 H   0  0  0  0  0  0  0  0  0  0  0  0
    4.6888    3.9443    0.0000 H   0  0  0  0  0  0  0  0  0  0  0  0
    2.4714    1.9938    0.0000 H   0  0  0  0  0  0  0  0  0  0  0  0
    3.2266    1.7387    0.0000 H   0  0  0  0  0  0  0  0  0  0  0  0
    4.1705    4.5335    0.0000 H   0  0  0  0  0  0  0  0  0  0  0  0
    3.4154    4.7886    0.0000 H   0  0  0  0  0  0  0  0  0  0  0  0
    1.7965    3.3644    0.0000 H   0  0  0  0  0  0  0  0  0  0  0  0
    1.9532    2.5829    0.0000 H   0  0  0  0  0  0  0  0  0  0  0  0
    6.9539   -1.5395    0.0000 H   0  0  0  0  0  0  0  0  0  0  0  0
    6.2826   -1.0518    0.0000 H   0  0  0  0  0  0  0  0  0  0  0  0
    5.1860    1.4646    0.0000 H   0  0  0  0  0  0  0  0  0  0  0  0
    5.0293    2.2461    0.0000 H   0  0  0  0  0  0  0  0  0  0  0  0
    2.4655    5.1748    0.0000 H   0  0  0  0  0  0  0  0  0  0  0  0
    1.5905    5.2308    0.0000 H   0  0  0  0  0  0  0  0  0  0  0  0
    1.5345    4.3558    0.0000 H   0  0  0  0  0  0  0  0  0  0  0  0
    5.5904    0.1856    0.0000 H   0  0  0  0  0  0  0  0  0  0  0  0
    3.8383   -3.4436    0.0000 H   0  0  0  0  0  0  0  0  0  0  0  0
    5.7935   -4.6541    0.0000 H   0  0  0  0  0  0  0  0  0  0  0  0
    3.2289   -0.6301    0.0000 H   0  0  0  0  0  0  0  0  0  0  0  0
    2.7141   -2.2143    0.0000 H   0  0  0  0  0  0  0  0  0  0  0  0
    9.2177   -4.1077    0.0000 H   0  0  0  0  0  0  0  0  0  0  0  0
    8.3579   -1.4458    0.0000 H   0  0  0  0  0  0  0  0  0  0  0  0
   12.5883   -4.3802    0.0000 H   0  0  0  0  0  0  0  0  0  0  0  0
   13.3683   -4.2159    0.0000 H   0  0  0  0  0  0  0  0  0  0  0  0
   15.1916   -2.2016    0.0000 H   0  0  0  0  0  0  0  0  0  0  0  0
   14.3199   -4.8687    0.0000 H   0  0  0  0  0  0  0  0  0  0  0  0
   16.7315   -2.7049    0.0000 H   0  0  0  0  0  0  0  0  0  0  0  0
   15.8598   -5.3720    0.0000 H   0  0  0  0  0  0  0  0  0  0  0  0
   17.0655   -4.2901    0.0000 H   0  0  0  0  0  0  0  0  0  0  0  0
  1 28  1  0  0  0  0
  1 29  1  0  0  0  0
  2 21  2  0  0  0  0
  3 32  1  0  0  0  0
  3 33  1  0  0  0  0
  4  9  1  0  0  0  0
  4 10  1  0  0  0  0
  4 15  1  0  0  0  0
  5 11  1  0  0  0  0
  5 12  1  0  0  0  0
  5 22  1  0  0  0  0
  6 19  1  0  0  0  0
  6 21  1  0  0  0  0
  6 54  1  0  0  0  0
  7  8  1  0  0  0  0
  7 18  1  0  0  0  0
  7 56  1  0  0  0  0
  8 20  2  0  0  0  0
  9 11  1  0  0  0  0
  9 39  1  0  0  0  0
  9 40  1  0  0  0  0
 10 12  1  0  0  0  0
 10 41  1  0  0  0  0
 10 42  1  0  0  0  0
 11 43  1  0  0  0  0
 11 44  1  0  0  0  0
 12 45  1  0  0  0  0
 12 46  1  0  0  0  0
 13 14  1  0  0  0  0
 13 17  2  0  0  0  0
 13 19  1  0  0  0  0
 14 16  1  0  0  0  0
 14 47  1  0  0  0  0
 14 48  1  0  0  0  0
 15 21  1  0  0  0  0
 15 49  1  0  0  0  0
 15 50  1  0  0  0  0
 16 18  2  0  0  0  0
 16 20  1  0  0  0  0
 17 18  1  0  0  0  0
 17 23  1  0  0  0  0
 19 24  2  0  0  0  0
 20 26  1  0  0  0  0
 22 51  1  0  0  0  0
 22 52  1  0  0  0  0
 22 53  1  0  0  0  0
 23 25  2  0  0  0  0
 23 55  1  0  0  0  0
 24 25  1  0  0  0  0
 24 57  1  0  0  0  0
 25 58  1  0  0  0  0
 26 27  1  0  0  0  0
 26 28  2  0  0  0  0
 27 29  2  0  0  0  0
 27 59  1  0  0  0  0
 28 60  1  0  0  0  0
 29 30  1  0  0  0  0
 30 31  3  0  0  0  0
 31 32  1  0  0  0  0
 32 61  1  0  0  0  0
 32 62  1  0  0  0  0
 33 34  2  0  0  0  0
 33 35  1  0  0  0  0
 34 36  1  0  0  0  0
 34 63  1  0  0  0  0
 35 37  2  0  0  0  0
 35 64  1  0  0  0  0
 36 38  2  0  0  0  0
 36 65  1  0  0  0  0
 37 38  1  0  0  0  0
 37 66  1  0  0  0  0
 38 67  1  0  0  0  0
M  END
> <PUBCHEM_COMPOUND_CID>
16747696

> <PUBCHEM_COMPOUND_CANONICALIZED>
1

> <PUBCHEM_CACTVS_COMPLEXITY>
876

> <PUBCHEM_CACTVS_HBOND_ACCEPTOR>
6

> <PUBCHEM_CACTVS_HBOND_DONOR>
2

> <PUBCHEM_CACTVS_ROTATABLE_BOND>
7

> <PUBCHEM_CACTVS_SUBSKEYS>
AAADceB7sABAAAAAAAAAAAAAAAAAAeJEAAA8YIAAAAAWAGAB9AAAHgQYAAAADAzl3gayx5PjBAjuEyVyUAiTDIAhKhBYuTiubJgMZqLk8fuWvCjk3BHo6AeQwMAOgAAAQAASAAAAAACAACQAASAACQAAAA==

> <PUBCHEM_IUPAC_OPENEYE_NAME>
2-(4-methylpiperazin-1-yl)-N-[3-[5-(3-phenoxyprop-1-ynyl)-3-thienyl]-1,4-dihydroindeno[1,2-c]pyrazol-5-yl]acetamide

> <PUBCHEM_IUPAC_CAS_NAME>
2-(4-methyl-1-piperazinyl)-N-[3-[5-(3-phenoxyprop-1-ynyl)-3-thiophenyl]-1,4-dihydroindeno[1,2-c]pyrazol-5-yl]acetamide

> <PUBCHEM_IUPAC_NAME_MARKUP>
2-(4-methylpiperazin-1-yl)-<I>N</I>-[3-[5-(3-phenoxyprop-1-ynyl)thiophen-3-yl]-1,4-dihydroindeno[1,2-c]pyrazol-5-yl]acetamide

> <PUBCHEM_IUPAC_NAME>
2-(4-methylpiperazin-1-yl)-N-[3-[5-(3-phenoxyprop-1-ynyl)thiophen-3-yl]-1,4-dihydroindeno[1,2-c]pyrazol-5-yl]acetamide

> <PUBCHEM_IUPAC_SYSTEMATIC_NAME>
2-(4-methylpiperazin-1-yl)-N-[3-[5-(3-phenoxyprop-1-ynyl)thiophen-3-yl]-1,4-dihydroindeno[1,2-c]pyrazol-5-yl]ethanamide

> <PUBCHEM_IUPAC_TRADITIONAL_NAME>
2-(4-methylpiperazino)-N-[3-[5-(3-phenoxyprop-1-ynyl)-3-thienyl]-1,4-dihydroindeno[1,2-c]pyrazol-5-yl]acetamide

> <PUBCHEM_IUPAC_INCHI>
InChI=1S/C30H29N5O2S/c1-34-12-14-35(15-13-34)19-28(36)31-27-11-5-10-24-25(27)18-26-29(32-33-30(24)26)21-17-23(38-20-21)9-6-16-37-22-7-3-2-4-8-22/h2-5,7-8,10-11,17,20H,12-16,18-19H2,1H3,(H,31,36)(H,32,33)

> <PUBCHEM_IUPAC_INCHIKEY>
OPPRLSONSGULSP-UHFFFAOYSA-N

> <PUBCHEM_XLOGP3_AA>
4.2

> <PUBCHEM_EXACT_MASS>
523.20419636

> <PUBCHEM_MOLECULAR_FORMULA>
C30H29N5O2S

> <PUBCHEM_MOLECULAR_WEIGHT>
523.6

> <PUBCHEM_SMILES>
CN1CCN(CC1)CC(=O)NC2=CC=CC3=C2CC4=C3NN=C4C5=CSC(=C5)C#CCOC6=CC=CC=C6

> <PUBCHEM_OPENEYE_CAN_SMILES>
CN1CCN(CC1)CC(=O)NC2=CC=CC3=C2CC4=C3NN=C4C5=CSC(=C5)C#CCOC6=CC=CC=C6

> <PUBCHEM_OPENEYE_ISO_SMILES>
CN1CCN(CC1)CC(=O)NC2=CC=CC3=C2CC4=C3NN=C4C5=CSC(=C5)C#CCOC6=CC=CC=C6

> <PUBCHEM_CACTVS_TPSA>
102

> <PUBCHEM_MONOISOTOPIC_WEIGHT>
523.20419636

> <PUBCHEM_TOTAL_CHARGE>
0

> <PUBCHEM_HEAVY_ATOM_COUNT>
38

> <PUBCHEM_ATOM_DEF_STEREO_COUNT>
0

> <PUBCHEM_ATOM_UDEF_STEREO_COUNT>
0

> <PUBCHEM_BOND_DEF_STEREO_COUNT>
0

> <PUBCHEM_BOND_UDEF_STEREO_COUNT>
0

> <PUBCHEM_ISOTOPIC_ATOM_COUNT>
0

> <PUBCHEM_COMPONENT_COUNT>
1

> <PUBCHEM_CACTVS_TAUTO_COUNT>
-1

> <PUBCHEM_COORDINATE_TYPE>
1
5
255

> <PUBCHEM_BONDANNOTATIONS>
1  28  8
1  29  8
13  17  8
13  19  8
16  18  8
16  20  8
17  23  8
19  24  8
23  25  8
24  25  8
26  27  8
26  28  8
27  29  8
33  34  8
33  35  8
34  36  8
35  37  8
36  38  8
37  38  8
7  18  8
7  8  8
8  20  8

$$$$
