24905179
  -OEChem-03202500052D

 40 42  0     0  0  0  0  0  0999 V2000
    6.6353    0.0604    0.0000 O   0  0  0  0  0  0  0  0  0  0  0  0
    5.9209    3.4501    0.0000 O   0  0  0  0  0  0  0  0  0  0  0  0
    4.6783   -1.9615    0.0000 N   0  0  0  0  0  0  0  0  0  0  0  0
    5.2619   -1.1567    0.0000 N   0  0  0  0  0  0  0  0  0  0  0  0
    2.8660   -2.1567    0.0000 N   0  0  0  0  0  0  0  0  0  0  0  0
    2.0000   -0.6567    0.0000 N   0  0  0  0  0  0  0  0  0  0  0  0
    2.8660    0.8433    0.0000 N   0  0  0  0  0  0  0  0  0  0  0  0
    6.2781    1.7552    0.0000 N   0  0  0  0  0  0  0  0  0  0  0  0
    4.6318    2.2933    0.0000 N   0  0  0  0  0  0  0  0  0  0  0  0
    4.9889   -2.9120    0.0000 C   0  0  0  0  0  0  0  0  0  0  0  0
    3.7320   -1.6567    0.0000 C   0  0  0  0  0  0  0  0  0  0  0  0
    3.7320   -0.6567    0.0000 C   0  0  0  0  0  0  0  0  0  0  0  0
    4.6783   -0.3520    0.0000 C   0  0  0  0  0  0  0  0  0  0  0  0
    5.9674   -3.1182    0.0000 C   0  0  0  0  0  0  0  0  0  0  0  0
    4.3211   -3.6563    0.0000 C   0  0  0  0  0  0  0  0  0  0  0  0
    4.9889    0.5985    0.0000 C   0  0  0  0  0  0  0  0  0  0  0  0
    2.8660   -0.1567    0.0000 C   0  0  0  0  0  0  0  0  0  0  0  0
    5.9674    0.8047    0.0000 C   0  0  0  0  0  0  0  0  0  0  0  0
    4.3211    1.3428    0.0000 C   0  0  0  0  0  0  0  0  0  0  0  0
    2.0000   -1.6567    0.0000 C   0  0  0  0  0  0  0  0  0  0  0  0
    5.6103    2.4996    0.0000 C   0  0  0  0  0  0  0  0  0  0  0  0
    7.6138    0.2666    0.0000 C   0  0  0  0  0  0  0  0  0  0  0  0
    6.8994    3.6563    0.0000 C   0  0  0  0  0  0  0  0  0  0  0  0
    5.1815   -3.5013    0.0000 H   0  0  0  0  0  0  0  0  0  0  0  0
    5.8396   -3.7249    0.0000 H   0  0  0  0  0  0  0  0  0  0  0  0
    6.5741   -3.2461    0.0000 H   0  0  0  0  0  0  0  0  0  0  0  0
    6.0953   -2.5115    0.0000 H   0  0  0  0  0  0  0  0  0  0  0  0
    3.8596   -3.2422    0.0000 H   0  0  0  0  0  0  0  0  0  0  0  0
    3.9070   -4.1178    0.0000 H   0  0  0  0  0  0  0  0  0  0  0  0
    4.7826   -4.0704    0.0000 H   0  0  0  0  0  0  0  0  0  0  0  0
    3.7144    1.2150    0.0000 H   0  0  0  0  0  0  0  0  0  0  0  0
    1.4631   -1.9667    0.0000 H   0  0  0  0  0  0  0  0  0  0  0  0
    2.3291    1.1533    0.0000 H   0  0  0  0  0  0  0  0  0  0  0  0
    3.4030    1.1533    0.0000 H   0  0  0  0  0  0  0  0  0  0  0  0
    7.7416   -0.3400    0.0000 H   0  0  0  0  0  0  0  0  0  0  0  0
    8.2205    0.3945    0.0000 H   0  0  0  0  0  0  0  0  0  0  0  0
    7.4859    0.8733    0.0000 H   0  0  0  0  0  0  0  0  0  0  0  0
    7.0273    3.0496    0.0000 H   0  0  0  0  0  0  0  0  0  0  0  0
    7.5061    3.7842    0.0000 H   0  0  0  0  0  0  0  0  0  0  0  0
    6.7716    4.2630    0.0000 H   0  0  0  0  0  0  0  0  0  0  0  0
  1 18  1  0  0  0  0
  1 22  1  0  0  0  0
  2 21  1  0  0  0  0
  2 23  1  0  0  0  0
  3  4  1  0  0  0  0
  3 10  1  0  0  0  0
  3 11  1  0  0  0  0
  4 13  2  0  0  0  0
  5 11  2  0  0  0  0
  5 20  1  0  0  0  0
  6 17  1  0  0  0  0
  6 20  2  0  0  0  0
  7 17  1  0  0  0  0
  7 33  1  0  0  0  0
  7 34  1  0  0  0  0
  8 18  2  0  0  0  0
  8 21  1  0  0  0  0
  9 19  1  0  0  0  0
  9 21  2  0  0  0  0
 10 14  1  0  0  0  0
 10 15  1  0  0  0  0
 10 24  1  0  0  0  0
 11 12  1  0  0  0  0
 12 13  1  0  0  0  0
 12 17  2  0  0  0  0
 13 16  1  0  0  0  0
 14 25  1  0  0  0  0
 14 26  1  0  0  0  0
 14 27  1  0  0  0  0
 15 28  1  0  0  0  0
 15 29  1  0  0  0  0
 15 30  1  0  0  0  0
 16 18  1  0  0  0  0
 16 19  2  0  0  0  0
 19 31  1  0  0  0  0
 20 32  1  0  0  0  0
 22 35  1  0  0  0  0
 22 36  1  0  0  0  0
 22 37  1  0  0  0  0
 23 38  1  0  0  0  0
 23 39  1  0  0  0  0
 23 40  1  0  0  0  0
M  END
> <PUBCHEM_COMPOUND_CID>
24905179

> <PUBCHEM_COMPOUND_CANONICALIZED>
1

> <PUBCHEM_CACTVS_COMPLEXITY>
399

> <PUBCHEM_CACTVS_HBOND_ACCEPTOR>
8

> <PUBCHEM_CACTVS_HBOND_DONOR>
1

> <PUBCHEM_CACTVS_ROTATABLE_BOND>
4

> <PUBCHEM_CACTVS_SUBSKEYS>
AAADceBzsAAAAAAAAAAAAAAAAAAAAWAAAAAsWAAAAAAAAFgB/gAAHgAYAAAADCjBnwYvtN5IFACiAxZnZACSjCsxoKAV2CAsTJiMLKLE+MuEpChuyAvI6CaQEAIMAAAAAAAAAAAAAAAAAAAAAAAAAAAAAA==

> <PUBCHEM_IUPAC_OPENEYE_NAME>
3-(2,4-dimethoxypyrimidin-5-yl)-1-isopropyl-pyrazolo[3,4-d]pyrimidin-4-amine

> <PUBCHEM_IUPAC_CAS_NAME>
3-(2,4-dimethoxy-5-pyrimidinyl)-1-propan-2-yl-4-pyrazolo[3,4-d]pyrimidinamine

> <PUBCHEM_IUPAC_NAME_MARKUP>
3-(2,4-dimethoxypyrimidin-5-yl)-1-propan-2-ylpyrazolo[3,4-d]pyrimidin-4-amine

> <PUBCHEM_IUPAC_NAME>
3-(2,4-dimethoxypyrimidin-5-yl)-1-propan-2-ylpyrazolo[3,4-d]pyrimidin-4-amine

> <PUBCHEM_IUPAC_SYSTEMATIC_NAME>
3-(2,4-dimethoxypyrimidin-5-yl)-1-propan-2-yl-pyrazolo[3,4-d]pyrimidin-4-amine

> <PUBCHEM_IUPAC_TRADITIONAL_NAME>
[3-(2,4-dimethoxypyrimidin-5-yl)-1-isopropyl-pyrazolo[3,4-d]pyrimidin-4-yl]amine

> <PUBCHEM_IUPAC_INCHI>
InChI=1S/C14H17N7O2/c1-7(2)21-12-9(11(15)17-6-18-12)10(20-21)8-5-16-14(23-4)19-13(8)22-3/h5-7H,1-4H3,(H2,15,17,18)

> <PUBCHEM_IUPAC_INCHIKEY>
GTXKSDZLEOURPP-UHFFFAOYSA-N

> <PUBCHEM_XLOGP3_AA>
1.1

> <PUBCHEM_EXACT_MASS>
315.14437281

> <PUBCHEM_MOLECULAR_FORMULA>
C14H17N7O2

> <PUBCHEM_MOLECULAR_WEIGHT>
315.33

> <PUBCHEM_SMILES>
CC(C)N1C2=NC=NC(=C2C(=N1)C3=CN=C(N=C3OC)OC)N

> <PUBCHEM_OPENEYE_CAN_SMILES>
CC(C)N1C2=NC=NC(=C2C(=N1)C3=CN=C(N=C3OC)OC)N

> <PUBCHEM_OPENEYE_ISO_SMILES>
CC(C)N1C2=NC=NC(=C2C(=N1)C3=CN=C(N=C3OC)OC)N

> <PUBCHEM_CACTVS_TPSA>
114

> <PUBCHEM_MONOISOTOPIC_WEIGHT>
315.14437281

> <PUBCHEM_TOTAL_CHARGE>
0

> <PUBCHEM_HEAVY_ATOM_COUNT>
23

> <PUBCHEM_ATOM_DEF_STEREO_COUNT>
0

> <PUBCHEM_ATOM_UDEF_STEREO_COUNT>
0

> <PUBCHEM_BOND_DEF_STEREO_COUNT>
0

> <PUBCHEM_BOND_UDEF_STEREO_COUNT>
0

> <PUBCHEM_ISOTOPIC_ATOM_COUNT>
0

> <PUBCHEM_COMPONENT_COUNT>
1

> <PUBCHEM_CACTVS_TAUTO_COUNT>
-1

> <PUBCHEM_COORDINATE_TYPE>
1
5
255

> <PUBCHEM_BONDANNOTATIONS>
11  12  8
12  13  8
12  17  8
16  18  8
16  19  8
3  11  8
3  4  8
4  13  8
5  11  8
5  20  8
6  17  8
6  20  8
8  18  8
8  21  8
9  19  8
9  21  8

$$$$
