16109001
  -OEChem-03202505522D

 73 76  0     1  0  0  0  0  0999 V2000
   10.2942   -3.4510    0.0000 F   0  0  0  0  0  0  0  0  0  0  0  0
   10.6603   -4.8170    0.0000 F   0  0  0  0  0  0  0  0  0  0  0  0
    9.2942   -5.1830    0.0000 F   0  0  0  0  0  0  0  0  0  0  0  0
   10.6603    0.1830    0.0000 F   0  0  0  0  0  0  0  0  0  0  0  0
    9.7942   -1.3170    0.0000 O   0  0  0  0  0  0  0  0  0  0  0  0
    7.1962    2.1830    0.0000 O   0  0  0  0  0  0  0  0  0  0  0  0
    6.3301   -2.3170    0.0000 N   0  0  3  0  0  0  0  0  0  0  0  0
    2.8660   -2.3170    0.0000 N   0  0  0  0  0  0  0  0  0  0  0  0
    8.0622   -1.3170    0.0000 N   0  0  0  0  0  0  0  0  0  0  0  0
    8.0622    3.6830    0.0000 N   0  0  0  0  0  0  0  0  0  0  0  0
    5.4641    2.1830    0.0000 N   0  0  0  0  0  0  0  0  0  0  0  0
    4.5981    3.6830    0.0000 N   0  0  0  0  0  0  0  0  0  0  0  0
    4.5981    0.6830    0.0000 N   0  0  0  0  0  0  0  0  0  0  0  0
    3.7320    2.1830    0.0000 N   0  0  0  0  0  0  0  0  0  0  0  0
    5.4641   -2.8170    0.0000 C   0  0  0  0  0  0  0  0  0  0  0  0
    4.5981   -2.3170    0.0000 C   0  0  0  0  0  0  0  0  0  0  0  0
    3.7320   -2.8170    0.0000 C   0  0  0  0  0  0  0  0  0  0  0  0
    7.1962   -2.8170    0.0000 C   0  0  0  0  0  0  0  0  0  0  0  0
    8.0622   -2.3170    0.0000 C   0  0  0  0  0  0  0  0  0  0  0  0
    6.3301   -1.3170    0.0000 C   0  0  0  0  0  0  0  0  0  0  0  0
    7.1962   -3.8170    0.0000 C   0  0  0  0  0  0  0  0  0  0  0  0
    8.9282   -2.8170    0.0000 C   0  0  0  0  0  0  0  0  0  0  0  0
    8.9282   -3.8170    0.0000 C   0  0  0  0  0  0  0  0  0  0  0  0
    8.0622   -4.3170    0.0000 C   0  0  0  0  0  0  0  0  0  0  0  0
    2.0000   -2.8170    0.0000 C   0  0  0  0  0  0  0  0  0  0  0  0
    2.8660   -1.3170    0.0000 C   0  0  0  0  0  0  0  0  0  0  0  0
    9.7942   -4.3170    0.0000 C   0  0  0  0  0  0  0  0  0  0  0  0
    8.9282   -0.8170    0.0000 C   0  0  0  0  0  0  0  0  0  0  0  0
    8.9282    0.1830    0.0000 C   0  0  0  0  0  0  0  0  0  0  0  0
    8.0622    0.6830    0.0000 C   0  0  0  0  0  0  0  0  0  0  0  0
    9.7942    0.6830    0.0000 C   0  0  0  0  0  0  0  0  0  0  0  0
    8.0622    1.6830    0.0000 C   0  0  0  0  0  0  0  0  0  0  0  0
    9.7942    1.6830    0.0000 C   0  0  0  0  0  0  0  0  0  0  0  0
    8.9282    2.1830    0.0000 C   0  0  0  0  0  0  0  0  0  0  0  0
    7.1962    3.1830    0.0000 C   0  0  0  0  0  0  0  0  0  0  0  0
    6.3301    3.6830    0.0000 C   0  0  0  0  0  0  0  0  0  0  0  0
    6.3301    4.6830    0.0000 C   0  0  0  0  0  0  0  0  0  0  0  0
    5.4641    3.1830    0.0000 C   0  0  0  0  0  0  0  0  0  0  0  0
    7.1962    5.1830    0.0000 C   0  0  0  0  0  0  0  0  0  0  0  0
    8.0622    4.6830    0.0000 C   0  0  0  0  0  0  0  0  0  0  0  0
    4.5981    1.6830    0.0000 C   0  0  0  0  0  0  0  0  0  0  0  0
    3.7320    3.1830    0.0000 C   0  0  0  0  0  0  0  0  0  0  0  0
    3.7320    0.1830    0.0000 C   0  0  0  0  0  0  0  0  0  0  0  0
    5.0656   -3.2919    0.0000 H   0  0  0  0  0  0  0  0  0  0  0  0
    5.8626   -3.2919    0.0000 H   0  0  0  0  0  0  0  0  0  0  0  0
    4.9966   -1.8420    0.0000 H   0  0  0  0  0  0  0  0  0  0  0  0
    4.1996   -1.8420    0.0000 H   0  0  0  0  0  0  0  0  0  0  0  0
    3.3335   -3.2919    0.0000 H   0  0  0  0  0  0  0  0  0  0  0  0
    4.1306   -3.2919    0.0000 H   0  0  0  0  0  0  0  0  0  0  0  0
    6.9501   -1.3170    0.0000 H   0  0  0  0  0  0  0  0  0  0  0  0
    6.3301   -0.6970    0.0000 H   0  0  0  0  0  0  0  0  0  0  0  0
    5.7101   -1.3170    0.0000 H   0  0  0  0  0  0  0  0  0  0  0  0
    6.6592   -4.1270    0.0000 H   0  0  0  0  0  0  0  0  0  0  0  0
    9.4651   -2.5070    0.0000 H   0  0  0  0  0  0  0  0  0  0  0  0
    8.0622   -4.9370    0.0000 H   0  0  0  0  0  0  0  0  0  0  0  0
    1.6900   -2.2800    0.0000 H   0  0  0  0  0  0  0  0  0  0  0  0
    1.4631   -3.1270    0.0000 H   0  0  0  0  0  0  0  0  0  0  0  0
    2.3100   -3.3539    0.0000 H   0  0  0  0  0  0  0  0  0  0  0  0
    3.4860   -1.3170    0.0000 H   0  0  0  0  0  0  0  0  0  0  0  0
    2.8660   -0.6970    0.0000 H   0  0  0  0  0  0  0  0  0  0  0  0
    2.2460   -1.3170    0.0000 H   0  0  0  0  0  0  0  0  0  0  0  0
    7.5252   -1.0070    0.0000 H   0  0  0  0  0  0  0  0  0  0  0  0
    7.5252    0.3730    0.0000 H   0  0  0  0  0  0  0  0  0  0  0  0
   10.3312    1.9930    0.0000 H   0  0  0  0  0  0  0  0  0  0  0  0
    8.9282    2.8030    0.0000 H   0  0  0  0  0  0  0  0  0  0  0  0
    5.7932    4.9930    0.0000 H   0  0  0  0  0  0  0  0  0  0  0  0
    7.1962    5.8030    0.0000 H   0  0  0  0  0  0  0  0  0  0  0  0
    8.5991    4.9930    0.0000 H   0  0  0  0  0  0  0  0  0  0  0  0
    3.1951    3.4930    0.0000 H   0  0  0  0  0  0  0  0  0  0  0  0
    5.1350    0.3730    0.0000 H   0  0  0  0  0  0  0  0  0  0  0  0
    3.4220    0.7199    0.0000 H   0  0  0  0  0  0  0  0  0  0  0  0
    3.1951   -0.1270    0.0000 H   0  0  0  0  0  0  0  0  0  0  0  0
    4.0420   -0.3539    0.0000 H   0  0  0  0  0  0  0  0  0  0  0  0
  1 27  1  0  0  0  0
  2 27  1  0  0  0  0
  3 27  1  0  0  0  0
  4 31  1  0  0  0  0
  5 28  2  0  0  0  0
  6 32  1  0  0  0  0
  6 35  1  0  0  0  0
  7 15  1  0  0  0  0
  7 18  1  0  0  0  0
  7 20  1  0  0  0  0
  8 17  1  0  0  0  0
  8 25  1  0  0  0  0
  8 26  1  0  0  0  0
  9 19  1  0  0  0  0
  9 28  1  0  0  0  0
  9 62  1  0  0  0  0
 10 35  1  0  0  0  0
 10 40  2  0  0  0  0
 11 38  2  0  0  0  0
 11 41  1  0  0  0  0
 12 38  1  0  0  0  0
 12 42  2  0  0  0  0
 13 41  1  0  0  0  0
 13 43  1  0  0  0  0
 13 70  1  0  0  0  0
 14 41  2  0  0  0  0
 14 42  1  0  0  0  0
 15 16  1  0  0  0  0
 15 44  1  0  0  0  0
 15 45  1  0  0  0  0
 16 17  1  0  0  0  0
 16 46  1  0  0  0  0
 16 47  1  0  0  0  0
 17 48  1  0  0  0  0
 17 49  1  0  0  0  0
 18 19  2  0  0  0  0
 18 21  1  0  0  0  0
 19 22  1  0  0  0  0
 20 50  1  0  0  0  0
 20 51  1  0  0  0  0
 20 52  1  0  0  0  0
 21 24  2  0  0  0  0
 21 53  1  0  0  0  0
 22 23  2  0  0  0  0
 22 54  1  0  0  0  0
 23 24  1  0  0  0  0
 23 27  1  0  0  0  0
 24 55  1  0  0  0  0
 25 56  1  0  0  0  0
 25 57  1  0  0  0  0
 25 58  1  0  0  0  0
 26 59  1  0  0  0  0
 26 60  1  0  0  0  0
 26 61  1  0  0  0  0
 28 29  1  0  0  0  0
 29 30  1  0  0  0  0
 29 31  2  0  0  0  0
 30 32  2  0  0  0  0
 30 63  1  0  0  0  0
 31 33  1  0  0  0  0
 32 34  1  0  0  0  0
 33 34  2  0  0  0  0
 33 64  1  0  0  0  0
 34 65  1  0  0  0  0
 35 36  2  0  0  0  0
 36 37  1  0  0  0  0
 36 38  1  0  0  0  0
 37 39  2  0  0  0  0
 37 66  1  0  0  0  0
 39 40  1  0  0  0  0
 39 67  1  0  0  0  0
 40 68  1  0  0  0  0
 42 69  1  0  0  0  0
 43 71  1  0  0  0  0
 43 72  1  0  0  0  0
 43 73  1  0  0  0  0
M  END
> <PUBCHEM_COMPOUND_CID>
16109001

> <PUBCHEM_COMPOUND_CANONICALIZED>
1

> <PUBCHEM_CACTVS_COMPLEXITY>
871

> <PUBCHEM_CACTVS_HBOND_ACCEPTOR>
13

> <PUBCHEM_CACTVS_HBOND_DONOR>
2

> <PUBCHEM_CACTVS_ROTATABLE_BOND>
11

> <PUBCHEM_CACTVS_SUBSKEYS>
AAADceB78cAAAAAAAAAAAAAAAAAAAAAAAAA8eIEAAAAAAAAB9AAAHwAQAAAADAzBmxw/1pfIFACoAjd3dACCiCk1IqAJ2KE+fNiMbvLE/ZueOSju1BPI6Ye62BCOCAABQAAAACAQAAKAAAAAQAAAAAAAAA==

> <PUBCHEM_IUPAC_OPENEYE_NAME>
N-[2-[3-(dimethylamino)propyl-methyl-amino]-5-(trifluoromethyl)phenyl]-2-fluoro-5-[[3-[4-(methylamino)-1,3,5-triazin-2-yl]-2-pyridyl]oxy]benzamide

> <PUBCHEM_IUPAC_CAS_NAME>
N-[2-[3-(dimethylamino)propyl-methylamino]-5-(trifluoromethyl)phenyl]-2-fluoro-5-[[3-[4-(methylamino)-1,3,5-triazin-2-yl]-2-pyridinyl]oxy]benzamide

> <PUBCHEM_IUPAC_NAME_MARKUP>
<I>N</I>-[2-[3-(dimethylamino)propyl-methylamino]-5-(trifluoromethyl)phenyl]-2-fluoro-5-[3-[4-(methylamino)-1,3,5-triazin-2-yl]pyridin-2-yl]oxybenzamide

> <PUBCHEM_IUPAC_NAME>
N-[2-[3-(dimethylamino)propyl-methylamino]-5-(trifluoromethyl)phenyl]-2-fluoro-5-[3-[4-(methylamino)-1,3,5-triazin-2-yl]pyridin-2-yl]oxybenzamide

> <PUBCHEM_IUPAC_SYSTEMATIC_NAME>
N-[2-[3-(dimethylamino)propyl-methyl-amino]-5-(trifluoromethyl)phenyl]-2-fluoranyl-5-[3-[4-(methylamino)-1,3,5-triazin-2-yl]pyridin-2-yl]oxy-benzamide

> <PUBCHEM_IUPAC_TRADITIONAL_NAME>
N-[2-[3-(dimethylamino)propyl-methyl-amino]-5-(trifluoromethyl)phenyl]-2-fluoro-5-[[3-[4-(methylamino)-s-triazin-2-yl]-2-pyridyl]oxy]benzamide

> <PUBCHEM_IUPAC_INCHI>
InChI=1S/C29H30F4N8O2/c1-34-28-37-17-36-25(39-28)20-7-5-12-35-27(20)43-19-9-10-22(30)21(16-19)26(42)38-23-15-18(29(31,32)33)8-11-24(23)41(4)14-6-13-40(2)3/h5,7-12,15-17H,6,13-14H2,1-4H3,(H,38,42)(H,34,36,37,39)

> <PUBCHEM_IUPAC_INCHIKEY>
HHKGVQGXRGQBBA-UHFFFAOYSA-N

> <PUBCHEM_XLOGP3_AA>
5.1

> <PUBCHEM_EXACT_MASS>
598.24278488

> <PUBCHEM_MOLECULAR_FORMULA>
C29H30F4N8O2

> <PUBCHEM_MOLECULAR_WEIGHT>
598.6

> <PUBCHEM_SMILES>
CNC1=NC=NC(=N1)C2=C(N=CC=C2)OC3=CC(=C(C=C3)F)C(=O)NC4=C(C=CC(=C4)C(F)(F)F)N(C)CCCN(C)C

> <PUBCHEM_OPENEYE_CAN_SMILES>
CNC1=NC=NC(=N1)C2=C(N=CC=C2)OC3=CC(=C(C=C3)F)C(=O)NC4=C(C=CC(=C4)C(F)(F)F)N(C)CCCN(C)C

> <PUBCHEM_OPENEYE_ISO_SMILES>
CNC1=NC=NC(=N1)C2=C(N=CC=C2)OC3=CC(=C(C=C3)F)C(=O)NC4=C(C=CC(=C4)C(F)(F)F)N(C)CCCN(C)C

> <PUBCHEM_CACTVS_TPSA>
108

> <PUBCHEM_MONOISOTOPIC_WEIGHT>
598.24278488

> <PUBCHEM_TOTAL_CHARGE>
0

> <PUBCHEM_HEAVY_ATOM_COUNT>
43

> <PUBCHEM_ATOM_DEF_STEREO_COUNT>
0

> <PUBCHEM_ATOM_UDEF_STEREO_COUNT>
0

> <PUBCHEM_BOND_DEF_STEREO_COUNT>
0

> <PUBCHEM_BOND_UDEF_STEREO_COUNT>
0

> <PUBCHEM_ISOTOPIC_ATOM_COUNT>
0

> <PUBCHEM_COMPONENT_COUNT>
1

> <PUBCHEM_CACTVS_TAUTO_COUNT>
-1

> <PUBCHEM_COORDINATE_TYPE>
1
5
255

> <PUBCHEM_BONDANNOTATIONS>
10  35  8
10  40  8
11  38  8
11  41  8
12  38  8
12  42  8
14  41  8
14  42  8
18  19  8
18  21  8
19  22  8
21  24  8
22  23  8
23  24  8
29  30  8
29  31  8
30  32  8
31  33  8
32  34  8
33  34  8
35  36  8
36  37  8
37  39  8
39  40  8

$$$$
