44410720
  -OEChem-03202504392D

 52 55  0     1  0  0  0  0  0999 V2000
   12.0793   -1.0474    0.0000 Cl  0  0  0  0  0  0  0  0  0  0  0  0
   10.3590   -0.0274    0.0000 F   0  0  0  0  0  0  0  0  0  0  0  0
    2.5369    1.5272    0.0000 O   0  0  0  0  0  0  0  0  0  0  0  0
    5.1350    2.0272    0.0000 O   0  0  0  0  0  0  0  0  0  0  0  0
    4.2690   -1.4728    0.0000 O   0  0  0  0  0  0  0  0  0  0  0  0
    4.2690    0.5272    0.0000 N   0  0  3  0  0  0  0  0  0  0  0  0
    2.5369   -1.4728    0.0000 N   0  0  0  0  0  0  0  0  0  0  0  0
    8.6270    2.0619    0.0000 N   0  0  0  0  0  0  0  0  0  0  0  0
    8.6155   -1.0074    0.0000 N   0  0  0  0  0  0  0  0  0  0  0  0
    9.5331    0.5064    0.0000 N   0  0  0  0  0  0  0  0  0  0  0  0
    3.4030    0.0272    0.0000 C   0  0  3  0  0  0  0  0  0  0  0  0
    4.2690    1.5272    0.0000 C   0  0  0  0  0  0  0  0  0  0  0  0
    5.1350    0.0272    0.0000 C   0  0  0  0  0  0  0  0  0  0  0  0
    2.5369    0.5272    0.0000 C   0  0  0  0  0  0  0  0  0  0  0  0
    3.4030    2.0272    0.0000 C   0  0  0  0  0  0  0  0  0  0  0  0
    6.0010    0.5272    0.0000 C   0  0  0  0  0  0  0  0  0  0  0  0
    3.4030   -0.9728    0.0000 C   0  0  0  0  0  0  0  0  0  0  0  0
    6.8671    0.0272    0.0000 C   0  0  0  0  0  0  0  0  0  0  0  0
    6.0010    1.5272    0.0000 C   0  0  0  0  0  0  0  0  0  0  0  0
    7.7331    0.5272    0.0000 C   0  0  0  0  0  0  0  0  0  0  0  0
    7.7331    1.5272    0.0000 C   0  0  0  0  0  0  0  0  0  0  0  0
    6.8671    2.0272    0.0000 C   0  0  0  0  0  0  0  0  0  0  0  0
    8.6270   -0.0074    0.0000 C   0  0  0  0  0  0  0  0  0  0  0  0
    9.5331    1.5481    0.0000 C   0  0  0  0  0  0  0  0  0  0  0  0
    5.1350    3.0272    0.0000 C   0  0  0  0  0  0  0  0  0  0  0  0
    9.4756   -1.5173    0.0000 C   0  0  0  0  0  0  0  0  0  0  0  0
   10.3474   -1.0274    0.0000 C   0  0  0  0  0  0  0  0  0  0  0  0
    9.4641   -2.5173    0.0000 C   0  0  0  0  0  0  0  0  0  0  0  0
   11.2076   -1.5374    0.0000 C   0  0  0  0  0  0  0  0  0  0  0  0
   10.3243   -3.0272    0.0000 C   0  0  0  0  0  0  0  0  0  0  0  0
   11.1960   -2.5373    0.0000 C   0  0  0  0  0  0  0  0  0  0  0  0
    3.9399   -0.2828    0.0000 H   0  0  0  0  0  0  0  0  0  0  0  0
    4.8796    1.4196    0.0000 H   0  0  0  0  0  0  0  0  0  0  0  0
    4.4810    2.1098    0.0000 H   0  0  0  0  0  0  0  0  0  0  0  0
    4.7365   -0.4477    0.0000 H   0  0  0  0  0  0  0  0  0  0  0  0
    5.5335   -0.4477    0.0000 H   0  0  0  0  0  0  0  0  0  0  0  0
    1.9264    0.6349    0.0000 H   0  0  0  0  0  0  0  0  0  0  0  0
    2.3249   -0.0554    0.0000 H   0  0  0  0  0  0  0  0  0  0  0  0
    3.8015    2.5022    0.0000 H   0  0  0  0  0  0  0  0  0  0  0  0
    3.0044    2.5022    0.0000 H   0  0  0  0  0  0  0  0  0  0  0  0
    6.8671   -0.5928    0.0000 H   0  0  0  0  0  0  0  0  0  0  0  0
    6.8671    2.6472    0.0000 H   0  0  0  0  0  0  0  0  0  0  0  0
    2.0000   -1.1628    0.0000 H   0  0  0  0  0  0  0  0  0  0  0  0
    2.5369   -2.0928    0.0000 H   0  0  0  0  0  0  0  0  0  0  0  0
    8.0750   -1.3111    0.0000 H   0  0  0  0  0  0  0  0  0  0  0  0
   10.0688    1.8601    0.0000 H   0  0  0  0  0  0  0  0  0  0  0  0
    5.7550    3.0272    0.0000 H   0  0  0  0  0  0  0  0  0  0  0  0
    5.1350    3.6472    0.0000 H   0  0  0  0  0  0  0  0  0  0  0  0
    4.5150    3.0272    0.0000 H   0  0  0  0  0  0  0  0  0  0  0  0
    8.9236   -2.8210    0.0000 H   0  0  0  0  0  0  0  0  0  0  0  0
   10.3171   -3.6472    0.0000 H   0  0  0  0  0  0  0  0  0  0  0  0
   11.7293   -2.8535    0.0000 H   0  0  0  0  0  0  0  0  0  0  0  0
  1 29  1  0  0  0  0
  2 27  1  0  0  0  0
  3 14  1  0  0  0  0
  3 15  1  0  0  0  0
  4 19  1  0  0  0  0
  4 25  1  0  0  0  0
  5 17  2  0  0  0  0
  6 11  1  0  0  0  0
  6 12  1  0  0  0  0
  6 13  1  0  0  0  0
  7 17  1  0  0  0  0
  7 43  1  0  0  0  0
  7 44  1  0  0  0  0
  8 21  1  0  0  0  0
  8 24  2  0  0  0  0
  9 23  1  0  0  0  0
  9 26  1  0  0  0  0
  9 45  1  0  0  0  0
 10 23  2  0  0  0  0
 10 24  1  0  0  0  0
 11 14  1  0  0  0  0
 11 17  1  0  0  0  0
 11 32  1  0  0  0  0
 12 15  1  0  0  0  0
 12 33  1  0  0  0  0
 12 34  1  0  0  0  0
 13 16  1  0  0  0  0
 13 35  1  0  0  0  0
 13 36  1  0  0  0  0
 14 37  1  0  0  0  0
 14 38  1  0  0  0  0
 15 39  1  0  0  0  0
 15 40  1  0  0  0  0
 16 18  2  0  0  0  0
 16 19  1  0  0  0  0
 18 20  1  0  0  0  0
 18 41  1  0  0  0  0
 19 22  2  0  0  0  0
 20 21  2  0  0  0  0
 20 23  1  0  0  0  0
 21 22  1  0  0  0  0
 22 42  1  0  0  0  0
 24 46  1  0  0  0  0
 25 47  1  0  0  0  0
 25 48  1  0  0  0  0
 25 49  1  0  0  0  0
 26 27  2  0  0  0  0
 26 28  1  0  0  0  0
 27 29  1  0  0  0  0
 28 30  2  0  0  0  0
 28 50  1  0  0  0  0
 29 31  2  0  0  0  0
 30 31  1  0  0  0  0
 30 51  1  0  0  0  0
 31 52  1  0  0  0  0
M  END
> <PUBCHEM_COMPOUND_CID>
44410720

> <PUBCHEM_COMPOUND_CANONICALIZED>
1

> <PUBCHEM_CACTVS_COMPLEXITY>
620

> <PUBCHEM_CACTVS_HBOND_ACCEPTOR>
8

> <PUBCHEM_CACTVS_HBOND_DONOR>
2

> <PUBCHEM_CACTVS_ROTATABLE_BOND>
6

> <PUBCHEM_CACTVS_SUBSKEYS>
AAADceB7sQAEAAAAAAAAAAAAAAAAAAAAAAA8eIEAAAAAAACx9AAAHwIQAAAADC7hni439vfIFACoAydzdACCiCkxJ6AJ2CG+bpiObubF+/uXNChu8BvY6CeQ0GMOKAACAgIKAABQAAQEBBQAAAAAAAAAAA==

> <PUBCHEM_IUPAC_OPENEYE_NAME>
4-[[4-(3-chloro-2-fluoro-anilino)-7-methoxy-quinazolin-6-yl]methyl]morpholine-3-carboxamide

> <PUBCHEM_IUPAC_CAS_NAME>
4-[[4-(3-chloro-2-fluoroanilino)-7-methoxy-6-quinazolinyl]methyl]-3-morpholinecarboxamide

> <PUBCHEM_IUPAC_NAME_MARKUP>
4-[[4-(3-chloro-2-fluoroanilino)-7-methoxyquinazolin-6-yl]methyl]morpholine-3-carboxamide

> <PUBCHEM_IUPAC_NAME>
4-[[4-(3-chloro-2-fluoroanilino)-7-methoxyquinazolin-6-yl]methyl]morpholine-3-carboxamide

> <PUBCHEM_IUPAC_SYSTEMATIC_NAME>
4-[[4-[(3-chloranyl-2-fluoranyl-phenyl)amino]-7-methoxy-quinazolin-6-yl]methyl]morpholine-3-carboxamide

> <PUBCHEM_IUPAC_TRADITIONAL_NAME>
4-[[4-(3-chloro-2-fluoro-anilino)-7-methoxy-quinazolin-6-yl]methyl]morpholine-3-carboxamide

> <PUBCHEM_IUPAC_INCHI>
InChI=1S/C21H21ClFN5O3/c1-30-18-8-16-13(7-12(18)9-28-5-6-31-10-17(28)20(24)29)21(26-11-25-16)27-15-4-2-3-14(22)19(15)23/h2-4,7-8,11,17H,5-6,9-10H2,1H3,(H2,24,29)(H,25,26,27)

> <PUBCHEM_IUPAC_INCHIKEY>
MRMPJCJPMMLVBE-UHFFFAOYSA-N

> <PUBCHEM_XLOGP3_AA>
2.6

> <PUBCHEM_EXACT_MASS>
445.1316954

> <PUBCHEM_MOLECULAR_FORMULA>
C21H21ClFN5O3

> <PUBCHEM_MOLECULAR_WEIGHT>
445.9

> <PUBCHEM_SMILES>
COC1=CC2=C(C=C1CN3CCOCC3C(=O)N)C(=NC=N2)NC4=C(C(=CC=C4)Cl)F

> <PUBCHEM_OPENEYE_CAN_SMILES>
COC1=CC2=C(C=C1CN3CCOCC3C(=O)N)C(=NC=N2)NC4=C(C(=CC=C4)Cl)F

> <PUBCHEM_OPENEYE_ISO_SMILES>
COC1=CC2=C(C=C1CN3CCOCC3C(=O)N)C(=NC=N2)NC4=C(C(=CC=C4)Cl)F

> <PUBCHEM_CACTVS_TPSA>
103

> <PUBCHEM_MONOISOTOPIC_WEIGHT>
445.1316954

> <PUBCHEM_TOTAL_CHARGE>
0

> <PUBCHEM_HEAVY_ATOM_COUNT>
31

> <PUBCHEM_ATOM_DEF_STEREO_COUNT>
0

> <PUBCHEM_ATOM_UDEF_STEREO_COUNT>
1

> <PUBCHEM_BOND_DEF_STEREO_COUNT>
0

> <PUBCHEM_BOND_UDEF_STEREO_COUNT>
0

> <PUBCHEM_ISOTOPIC_ATOM_COUNT>
0

> <PUBCHEM_COMPONENT_COUNT>
1

> <PUBCHEM_CACTVS_TAUTO_COUNT>
-1

> <PUBCHEM_COORDINATE_TYPE>
1
5
255

> <PUBCHEM_BONDANNOTATIONS>
10  23  8
10  24  8
11  17  3
16  18  8
16  19  8
18  20  8
19  22  8
20  21  8
20  23  8
21  22  8
26  27  8
26  28  8
27  29  8
28  30  8
29  31  8
30  31  8
8  21  8
8  24  8

$$$$
