24807809
  -OEChem-03202505112D

 80 83  0     1  0  0  0  0  0999 V2000
    8.6500    3.7034    0.0000 O   0  0  0  0  0  0  0  0  0  0  0  0
    4.7950    2.9482    0.0000 O   0  0  0  0  0  0  0  0  0  0  0  0
    2.8763    0.9775    0.0000 O   0  0  0  0  0  0  0  0  0  0  0  0
    7.4149   -0.5833    0.0000 O   0  0  0  0  0  0  0  0  0  0  0  0
    6.2908   -1.3846    0.0000 O   0  0  0  0  0  0  0  0  0  0  0  0
    2.9872    3.0218    0.0000 O   0  0  0  0  0  0  0  0  0  0  0  0
    2.0000   -0.6041    0.0000 O   0  0  0  0  0  0  0  0  0  0  0  0
    5.6610    4.4482    0.0000 O   0  0  0  0  0  0  0  0  0  0  0  0
    6.4736   -3.8664    0.0000 O   0  0  0  0  0  0  0  0  0  0  0  0
    4.1571   -2.5883    0.0000 N   0  0  3  0  0  0  0  0  0  0  0  0
    7.3931    2.4482    0.0000 C   0  0  1  0  0  0  0  0  0  0  0  0
    7.3931    1.4482    0.0000 C   0  0  1  0  0  0  0  0  0  0  0  0
    8.3393    2.7529    0.0000 C   0  0  2  0  0  0  0  0  0  0  0  0
    6.5271    2.9482    0.0000 C   0  0  0  0  0  0  0  0  0  0  0  0
    8.3393    1.1435    0.0000 C   0  0  0  0  0  0  0  0  0  0  0  0
    6.5271    0.9482    0.0000 C   0  0  0  0  0  0  0  0  0  0  0  0
    8.9229    1.9482    0.0000 C   0  0  0  0  0  0  0  0  0  0  0  0
    5.6610    1.4482    0.0000 C   0  0  0  0  0  0  0  0  0  0  0  0
    5.6610    2.4482    0.0000 C   0  0  2  0  0  0  0  0  0  0  0  0
    4.7510    0.9413    0.0000 C   0  0  1  0  0  0  0  0  0  0  0  0
    7.3931    3.4482    0.0000 C   0  0  0  0  0  0  0  0  0  0  0  0
    3.8242    1.5054    0.0000 C   0  0  1  0  0  0  0  0  0  0  0  0
    4.7430   -0.1003    0.0000 C   0  0  0  0  0  0  0  0  0  0  0  0
    6.5431   -0.0933    0.0000 C   0  0  0  0  0  0  0  0  0  0  0  0
    4.7587    1.9413    0.0000 C   0  0  0  0  0  0  0  0  0  0  0  0
    5.6451   -0.6211    0.0000 C   0  0  0  0  0  0  0  0  0  0  0  0
    3.8076   -0.6500    0.0000 C   0  0  0  0  0  0  0  0  0  0  0  0
    3.8435    2.5052    0.0000 C   0  0  0  0  0  0  0  0  0  0  0  0
    2.8680   -0.1075    0.0000 C   0  0  0  0  0  0  0  0  0  0  0  0
    4.7950    3.9482    0.0000 C   0  0  0  0  0  0  0  0  0  0  0  0
    3.8114   -1.6500    0.0000 C   0  0  0  0  0  0  0  0  0  0  0  0
    3.9290    4.4482    0.0000 C   0  0  0  0  0  0  0  0  0  0  0  0
    3.5172   -3.3568    0.0000 C   0  0  0  0  0  0  0  0  0  0  0  0
    5.1425   -2.7582    0.0000 C   0  0  0  0  0  0  0  0  0  0  0  0
    2.1117    2.5386    0.0000 C   0  0  0  0  0  0  0  0  0  0  0  0
    2.8774   -4.1254    0.0000 C   0  0  0  0  0  0  0  0  0  0  0  0
    2.7488   -2.7171    0.0000 C   0  0  0  0  0  0  0  0  0  0  0  0
    4.2858   -3.9967    0.0000 C   0  0  0  0  0  0  0  0  0  0  0  0
    5.4882   -3.6966    0.0000 C   0  0  0  0  0  0  0  0  0  0  0  0
    7.4830    0.6030    0.0000 H   0  0  0  0  0  0  0  0  0  0  0  0
    7.9018    3.1923    0.0000 H   0  0  0  0  0  0  0  0  0  0  0  0
    6.9256    3.4231    0.0000 H   0  0  0  0  0  0  0  0  0  0  0  0
    6.1285    3.4231    0.0000 H   0  0  0  0  0  0  0  0  0  0  0  0
    8.0883    0.5766    0.0000 H   0  0  0  0  0  0  0  0  0  0  0  0
    8.8767    0.8342    0.0000 H   0  0  0  0  0  0  0  0  0  0  0  0
    9.3838    1.5335    0.0000 H   0  0  0  0  0  0  0  0  0  0  0  0
    9.3838    2.3629    0.0000 H   0  0  0  0  0  0  0  0  0  0  0  0
    5.6610    3.0682    0.0000 H   0  0  0  0  0  0  0  0  0  0  0  0
    8.0131    3.4482    0.0000 H   0  0  0  0  0  0  0  0  0  0  0  0
    7.3931    4.0682    0.0000 H   0  0  0  0  0  0  0  0  0  0  0  0
    6.7731    3.4482    0.0000 H   0  0  0  0  0  0  0  0  0  0  0  0
    3.2927    1.8247    0.0000 H   0  0  0  0  0  0  0  0  0  0  0  0
    5.3787    1.9365    0.0000 H   0  0  0  0  0  0  0  0  0  0  0  0
    4.7635    2.5613    0.0000 H   0  0  0  0  0  0  0  0  0  0  0  0
    4.1388    1.9461    0.0000 H   0  0  0  0  0  0  0  0  0  0  0  0
    9.2566    3.8313    0.0000 H   0  0  0  0  0  0  0  0  0  0  0  0
    4.4519    2.3858    0.0000 H   0  0  0  0  0  0  0  0  0  0  0  0
    4.0667    3.0837    0.0000 H   0  0  0  0  0  0  0  0  0  0  0  0
    3.2757   -1.9620    0.0000 H   0  0  0  0  0  0  0  0  0  0  0  0
    6.0811   -1.9680    0.0000 H   0  0  0  0  0  0  0  0  0  0  0  0
    4.2390    4.9851    0.0000 H   0  0  0  0  0  0  0  0  0  0  0  0
    3.3920    4.7582    0.0000 H   0  0  0  0  0  0  0  0  0  0  0  0
    3.6190    3.9113    0.0000 H   0  0  0  0  0  0  0  0  0  0  0  0
    5.7527   -2.6482    0.0000 H   0  0  0  0  0  0  0  0  0  0  0  0
    5.1402   -2.1382    0.0000 H   0  0  0  0  0  0  0  0  0  0  0  0
    1.8121    3.0814    0.0000 H   0  0  0  0  0  0  0  0  0  0  0  0
    1.5689    2.2390    0.0000 H   0  0  0  0  0  0  0  0  0  0  0  0
    2.4113    1.9958    0.0000 H   0  0  0  0  0  0  0  0  0  0  0  0
    2.4009   -3.7287    0.0000 H   0  0  0  0  0  0  0  0  0  0  0  0
    2.4807   -4.6018    0.0000 H   0  0  0  0  0  0  0  0  0  0  0  0
    3.3539   -4.5221    0.0000 H   0  0  0  0  0  0  0  0  0  0  0  0
    3.1455   -2.2406    0.0000 H   0  0  0  0  0  0  0  0  0  0  0  0
    2.2723   -2.3204    0.0000 H   0  0  0  0  0  0  0  0  0  0  0  0
    2.3521   -3.1936    0.0000 H   0  0  0  0  0  0  0  0  0  0  0  0
    3.8891   -4.4732    0.0000 H   0  0  0  0  0  0  0  0  0  0  0  0
    4.7622   -4.3934    0.0000 H   0  0  0  0  0  0  0  0  0  0  0  0
    4.6824   -3.5202    0.0000 H   0  0  0  0  0  0  0  0  0  0  0  0
    4.8780   -3.8066    0.0000 H   0  0  0  0  0  0  0  0  0  0  0  0
    5.4906   -4.3166    0.0000 H   0  0  0  0  0  0  0  0  0  0  0  0
    6.6880   -4.4482    0.0000 H   0  0  0  0  0  0  0  0  0  0  0  0
 13  1  1  1  0  0  0
  1 56  1  0  0  0  0
 19  2  1  6  0  0  0
  2 30  1  0  0  0  0
  3 22  1  0  0  0  0
  3 29  1  0  0  0  0
  4 24  2  0  0  0  0
  5 26  1  0  0  0  0
  5 60  1  0  0  0  0
  6 28  1  0  0  0  0
  6 35  1  0  0  0  0
  7 29  2  0  0  0  0
  8 30  2  0  0  0  0
  9 39  1  0  0  0  0
  9 80  1  0  0  0  0
 10 31  1  0  0  0  0
 10 33  1  0  0  0  0
 10 34  1  0  0  0  0
 11 12  1  0  0  0  0
 11 13  1  0  0  0  0
 11 14  1  0  0  0  0
 11 21  1  1  0  0  0
 12 15  1  0  0  0  0
 12 16  1  0  0  0  0
 12 40  1  6  0  0  0
 13 17  1  0  0  0  0
 13 41  1  0  0  0  0
 14 19  1  0  0  0  0
 14 42  1  0  0  0  0
 14 43  1  0  0  0  0
 15 17  1  0  0  0  0
 15 44  1  0  0  0  0
 15 45  1  0  0  0  0
 16 18  2  0  0  0  0
 16 24  1  0  0  0  0
 17 46  1  0  0  0  0
 17 47  1  0  0  0  0
 18 19  1  0  0  0  0
 18 20  1  0  0  0  0
 19 48  1  0  0  0  0
 20 22  1  0  0  0  0
 20 23  1  0  0  0  0
 20 25  1  1  0  0  0
 21 49  1  0  0  0  0
 21 50  1  0  0  0  0
 21 51  1  0  0  0  0
 22 28  1  6  0  0  0
 22 52  1  0  0  0  0
 23 26  2  0  0  0  0
 23 27  1  0  0  0  0
 24 26  1  0  0  0  0
 25 53  1  0  0  0  0
 25 54  1  0  0  0  0
 25 55  1  0  0  0  0
 27 29  1  0  0  0  0
 27 31  2  0  0  0  0
 28 57  1  0  0  0  0
 28 58  1  0  0  0  0
 30 32  1  0  0  0  0
 31 59  1  0  0  0  0
 32 61  1  0  0  0  0
 32 62  1  0  0  0  0
 32 63  1  0  0  0  0
 33 36  1  0  0  0  0
 33 37  1  0  0  0  0
 33 38  1  0  0  0  0
 34 39  1  0  0  0  0
 34 64  1  0  0  0  0
 34 65  1  0  0  0  0
 35 66  1  0  0  0  0
 35 67  1  0  0  0  0
 35 68  1  0  0  0  0
 36 69  1  0  0  0  0
 36 70  1  0  0  0  0
 36 71  1  0  0  0  0
 37 72  1  0  0  0  0
 37 73  1  0  0  0  0
 37 74  1  0  0  0  0
 38 75  1  0  0  0  0
 38 76  1  0  0  0  0
 38 77  1  0  0  0  0
 39 78  1  0  0  0  0
 39 79  1  0  0  0  0
M  END
> <PUBCHEM_COMPOUND_CID>
24807809

> <PUBCHEM_COMPOUND_CANONICALIZED>
1

> <PUBCHEM_CACTVS_COMPLEXITY>
1160

> <PUBCHEM_CACTVS_HBOND_ACCEPTOR>
10

> <PUBCHEM_CACTVS_HBOND_DONOR>
3

> <PUBCHEM_CACTVS_ROTATABLE_BOND>
8

> <PUBCHEM_CACTVS_SUBSKEYS>
AAADcfB6PAAAAAAAAAAAAAAAAAAAAYAAAAAkQIAAAAAAAECAAAAAHgAACAAAD5zhgAYCCAMABgCIAoDWSAIAAAAgIAAACAFIAEgLFBIAIAACUAAEwACaocPI7PzPgAAAAAAAAAAAAAAAAAAAAIAADAAAAA==

> <PUBCHEM_IUPAC_OPENEYE_NAME>
[(1S,3aR,6E,9S,9aR,10R,11aS)-6-[[tert-butyl(2-hydroxyethyl)amino]methylene]-1,5-dihydroxy-9-(methoxymethyl)-9a,11a-dimethyl-4,7-dioxo-2,3,3a,9,10,11-hexahydro-1H-indeno[4,5-h]isochromen-10-yl] acetate

> <PUBCHEM_IUPAC_CAS_NAME>
acetic acid [(1S,3aR,6E,9S,9aR,10R,11aS)-6-[[tert-butyl(2-hydroxyethyl)amino]methylidene]-1,5-dihydroxy-9-(methoxymethyl)-9a,11a-dimethyl-4,7-dioxo-2,3,3a,9,10,11-hexahydro-1H-indeno[4,5-h][2]benzopyran-10-yl] ester

> <PUBCHEM_IUPAC_NAME_MARKUP>
[(1<I>S</I>,3<I>a</I><I>R</I>,6<I>E</I>,9<I>S</I>,9<I>a</I><I>R</I>,10<I>R</I>,11<I>a</I><I>S</I>)-6-[[<I>tert</I>-butyl(2-hydroxyethyl)amino]methylidene]-1,5-dihydroxy-9-(methoxymethyl)-9<I>a</I>,11<I>a</I>-dimethyl-4,7-dioxo-2,3,3<I>a</I>,9,10,11-hexahydro-1<I>H</I>-indeno[4,5-h]isochromen-10-yl] acetate

> <PUBCHEM_IUPAC_NAME>
[(1S,3aR,6E,9S,9aR,10R,11aS)-6-[[tert-butyl(2-hydroxyethyl)amino]methylidene]-1,5-dihydroxy-9-(methoxymethyl)-9a,11a-dimethyl-4,7-dioxo-2,3,3a,9,10,11-hexahydro-1H-indeno[4,5-h]isochromen-10-yl] acetate

> <PUBCHEM_IUPAC_SYSTEMATIC_NAME>
[(1S,3aR,6E,9S,9aR,10R,11aS)-6-[[tert-butyl(2-hydroxyethyl)amino]methylidene]-9-(methoxymethyl)-9a,11a-dimethyl-1,5-bis(oxidanyl)-4,7-bis(oxidanylidene)-2,3,3a,9,10,11-hexahydro-1H-indeno[4,5-h]isochromen-10-yl] ethanoate

> <PUBCHEM_IUPAC_TRADITIONAL_NAME>
acetic acid [(1S,3aR,6E,9S,9aR,10R,11aS)-6-[[tert-butyl(2-hydroxyethyl)amino]methylene]-1,5-dihydroxy-4,7-diketo-9-(methoxymethyl)-9a,11a-dimethyl-2,3,3a,9,10,11-hexahydro-1H-inden[4,5-h]isochromen-10-yl] ester

> <PUBCHEM_IUPAC_INCHI>
InChI=1S/C29H41NO9/c1-15(32)38-18-12-28(5)17(8-9-19(28)33)21-23(18)29(6)20(14-37-7)39-26(36)16(22(29)25(35)24(21)34)13-30(10-11-31)27(2,3)4/h13,17-20,31,33,35H,8-12,14H2,1-7H3/b16-13+/t17-,18+,19-,20+,28-,29-/m0/s1

> <PUBCHEM_IUPAC_INCHIKEY>
GLCMDXVOFNDXMC-DISLKRJHSA-N

> <PUBCHEM_XLOGP3_AA>
1

> <PUBCHEM_EXACT_MASS>
547.27813189

> <PUBCHEM_MOLECULAR_FORMULA>
C29H41NO9

> <PUBCHEM_MOLECULAR_WEIGHT>
547.6

> <PUBCHEM_SMILES>
CC(=O)O[C@@H]1C[C@]2([C@@H](CC[C@@H]2O)C3=C1[C@]4([C@H](OC(=O)/C(=C/N(CCO)C(C)(C)C)/C4=C(C3=O)O)COC)C)C

> <PUBCHEM_OPENEYE_CAN_SMILES>
CC(=O)OC1CC2(C(CCC2O)C3=C1C4(C(OC(=O)C(=CN(CCO)C(C)(C)C)C4=C(C3=O)O)COC)C)C

> <PUBCHEM_OPENEYE_ISO_SMILES>
CC(=O)O[C@@H]1C[C@]2([C@@H](CC[C@@H]2O)C3=C1[C@]4([C@H](OC(=O)/C(=C/N(CCO)C(C)(C)C)/C4=C(C3=O)O)COC)C)C

> <PUBCHEM_CACTVS_TPSA>
143

> <PUBCHEM_MONOISOTOPIC_WEIGHT>
547.27813189

> <PUBCHEM_TOTAL_CHARGE>
0

> <PUBCHEM_HEAVY_ATOM_COUNT>
39

> <PUBCHEM_ATOM_DEF_STEREO_COUNT>
6

> <PUBCHEM_ATOM_UDEF_STEREO_COUNT>
0

> <PUBCHEM_BOND_DEF_STEREO_COUNT>
1

> <PUBCHEM_BOND_UDEF_STEREO_COUNT>
0

> <PUBCHEM_ISOTOPIC_ATOM_COUNT>
0

> <PUBCHEM_COMPONENT_COUNT>
1

> <PUBCHEM_CACTVS_TAUTO_COUNT>
-1

> <PUBCHEM_COORDINATE_TYPE>
1
5
255

> <PUBCHEM_BONDANNOTATIONS>
13  1  5
11  21  5
12  40  6
19  2  6
20  25  5
22  28  6

$$$$
