145948328
  -OEChem-03202501262D

 34 35  0     1  0  0  0  0  0999 V2000
    5.3147    0.1073    0.0000 S   0  3  3  0  0  0  0  0  0  0  0  0
    2.8660   -4.7291    0.0000 F   0  0  0  0  0  0  0  0  0  0  0  0
    6.3092    0.0028    0.0000 O   0  5  0  0  0  0  0  0  0  0  0  0
    3.0934    1.4346    0.0000 N   0  0  0  0  0  0  0  0  0  0  0  0
    2.8660   -0.7291    0.0000 N   0  0  0  0  0  0  0  0  0  0  0  0
    4.8147    0.9733    0.0000 N   0  0  0  0  0  0  0  0  0  0  0  0
    4.6456   -0.6358    0.0000 N   0  0  0  0  0  0  0  0  0  0  0  0
    2.5582    3.0818    0.0000 C   0  0  0  0  0  0  0  0  0  0  0  0
    3.3014    2.4127    0.0000 C   0  0  0  0  0  0  0  0  0  0  0  0
    2.7661    4.0600    0.0000 C   0  0  0  0  0  0  0  0  0  0  0  0
    3.8366    0.7654    0.0000 C   0  0  0  0  0  0  0  0  0  0  0  0
    3.7320   -0.2291    0.0000 C   0  0  0  0  0  0  0  0  0  0  0  0
    2.0230    4.7291    0.0000 C   0  0  0  0  0  0  0  0  0  0  0  0
    2.8660   -1.7291    0.0000 C   0  0  0  0  0  0  0  0  0  0  0  0
    2.0000   -2.2291    0.0000 C   0  0  0  0  0  0  0  0  0  0  0  0
    3.7320   -2.2291    0.0000 C   0  0  0  0  0  0  0  0  0  0  0  0
    2.0000   -3.2291    0.0000 C   0  0  0  0  0  0  0  0  0  0  0  0
    3.7320   -3.2291    0.0000 C   0  0  0  0  0  0  0  0  0  0  0  0
    2.8660   -3.7291    0.0000 C   0  0  0  0  0  0  0  0  0  0  0  0
    1.9834    3.3141    0.0000 H   0  0  0  0  0  0  0  0  0  0  0  0
    2.2296    2.5560    0.0000 H   0  0  0  0  0  0  0  0  0  0  0  0
    3.8762    2.1804    0.0000 H   0  0  0  0  0  0  0  0  0  0  0  0
    3.6299    2.9385    0.0000 H   0  0  0  0  0  0  0  0  0  0  0  0
    3.3410    3.8277    0.0000 H   0  0  0  0  0  0  0  0  0  0  0  0
    3.0947    4.5858    0.0000 H   0  0  0  0  0  0  0  0  0  0  0  0
    2.4378    5.1898    0.0000 H   0  0  0  0  0  0  0  0  0  0  0  0
    1.5622    5.1440    0.0000 H   0  0  0  0  0  0  0  0  0  0  0  0
    1.6081    4.2684    0.0000 H   0  0  0  0  0  0  0  0  0  0  0  0
    2.3291   -0.4191    0.0000 H   0  0  0  0  0  0  0  0  0  0  0  0
    5.0669    1.5397    0.0000 H   0  0  0  0  0  0  0  0  0  0  0  0
    1.4631   -1.9191    0.0000 H   0  0  0  0  0  0  0  0  0  0  0  0
    4.2690   -1.9191    0.0000 H   0  0  0  0  0  0  0  0  0  0  0  0
    1.4631   -3.5391    0.0000 H   0  0  0  0  0  0  0  0  0  0  0  0
    4.2690   -3.5391    0.0000 H   0  0  0  0  0  0  0  0  0  0  0  0
  1  3  1  0  0  0  0
  1  6  1  0  0  0  0
  1  7  1  0  0  0  0
  2 19  1  0  0  0  0
  4  9  1  0  0  0  0
  4 11  2  0  0  0  0
  5 12  1  0  0  0  0
  5 14  1  0  0  0  0
  5 29  1  0  0  0  0
  6 11  1  0  0  0  0
  6 30  1  0  0  0  0
  7 12  2  0  0  0  0
  8  9  1  0  0  0  0
  8 10  1  0  0  0  0
  8 20  1  0  0  0  0
  8 21  1  0  0  0  0
  9 22  1  0  0  0  0
  9 23  1  0  0  0  0
 10 13  1  0  0  0  0
 10 24  1  0  0  0  0
 10 25  1  0  0  0  0
 11 12  1  0  0  0  0
 13 26  1  0  0  0  0
 13 27  1  0  0  0  0
 13 28  1  0  0  0  0
 14 15  2  0  0  0  0
 14 16  1  0  0  0  0
 15 17  1  0  0  0  0
 15 31  1  0  0  0  0
 16 18  2  0  0  0  0
 16 32  1  0  0  0  0
 17 19  2  0  0  0  0
 17 33  1  0  0  0  0
 18 19  1  0  0  0  0
 18 34  1  0  0  0  0
M  CHG  2   1   1   3  -1
M  END
> <PUBCHEM_COMPOUND_CID>
145948328

> <PUBCHEM_COMPOUND_CANONICALIZED>
1

> <PUBCHEM_CACTVS_COMPLEXITY>
356

> <PUBCHEM_CACTVS_HBOND_ACCEPTOR>
4

> <PUBCHEM_CACTVS_HBOND_DONOR>
2

> <PUBCHEM_CACTVS_ROTATABLE_BOND>
5

> <PUBCHEM_CACTVS_SUBSKEYS>
AAADccBzoQBAAAAAAAAAAAAAAAAAAQAAAAAwAAAAAAAAAAABAAAAHQAQQAAACAjBEAwzwILAAACgACZiZACCAAEhAgAJiAAAZIgIYCLAmZGUIAhgkADIyAcQAAAAAAAAAAAAAAAAAAAAAAAAAAAAAAAAAA==

> <PUBCHEM_IUPAC_OPENEYE_NAME>
4-butylimino-N-(4-fluorophenyl)-1-oxido-1,2,5-thiadiazol-1-ium-3-amine

> <PUBCHEM_IUPAC_CAS_NAME>
4-butylimino-N-(4-fluorophenyl)-1-oxido-1,2,5-thiadiazol-1-ium-3-amine

> <PUBCHEM_IUPAC_NAME_MARKUP>
4-butylimino-<I>N</I>-(4-fluorophenyl)-1-oxido-1,2,5-thiadiazol-1-ium-3-amine

> <PUBCHEM_IUPAC_NAME>
4-butylimino-N-(4-fluorophenyl)-1-oxido-1,2,5-thiadiazol-1-ium-3-amine

> <PUBCHEM_IUPAC_SYSTEMATIC_NAME>
4-butylimino-N-(4-fluorophenyl)-1-oxidanidyl-1,2,5-thiadiazol-1-ium-3-amine

> <PUBCHEM_IUPAC_TRADITIONAL_NAME>
(4-butylimino-1-oxido-1,2,5-thiadiazol-1-ium-3-yl)-(4-fluorophenyl)amine

> <PUBCHEM_IUPAC_INCHI>
InChI=1S/C12H15FN4OS/c1-2-3-8-14-11-12(17-19(18)16-11)15-10-6-4-9(13)5-7-10/h4-7H,2-3,8H2,1H3,(H,14,16)(H,15,17)

> <PUBCHEM_IUPAC_INCHIKEY>
ZDXCUVXIHVTLEU-UHFFFAOYSA-N

> <PUBCHEM_XLOGP3_AA>
2.6

> <PUBCHEM_EXACT_MASS>
282.09506045

> <PUBCHEM_MOLECULAR_FORMULA>
C12H15FN4OS

> <PUBCHEM_MOLECULAR_WEIGHT>
282.34

> <PUBCHEM_SMILES>
CCCCN=C1C(=N[S+](N1)[O-])NC2=CC=C(C=C2)F

> <PUBCHEM_OPENEYE_CAN_SMILES>
CCCCN=C1C(=N[S+](N1)[O-])NC2=CC=C(C=C2)F

> <PUBCHEM_OPENEYE_ISO_SMILES>
CCCCN=C1C(=N[S+](N1)[O-])NC2=CC=C(C=C2)F

> <PUBCHEM_CACTVS_TPSA>
72.8

> <PUBCHEM_MONOISOTOPIC_WEIGHT>
282.09506045

> <PUBCHEM_TOTAL_CHARGE>
0

> <PUBCHEM_HEAVY_ATOM_COUNT>
19

> <PUBCHEM_ATOM_DEF_STEREO_COUNT>
0

> <PUBCHEM_ATOM_UDEF_STEREO_COUNT>
0

> <PUBCHEM_BOND_DEF_STEREO_COUNT>
0

> <PUBCHEM_BOND_UDEF_STEREO_COUNT>
0

> <PUBCHEM_ISOTOPIC_ATOM_COUNT>
0

> <PUBCHEM_COMPONENT_COUNT>
1

> <PUBCHEM_CACTVS_TAUTO_COUNT>
-1

> <PUBCHEM_COORDINATE_TYPE>
1
5
255

> <PUBCHEM_BONDANNOTATIONS>
14  15  8
14  16  8
15  17  8
16  18  8
17  19  8
18  19  8

$$$$
