49830865
  -OEChem-03202501532D

 28 31  0     0  0  0  0  0  0999 V2000
    8.8062   -1.3577    0.0000 N   0  0  0  0  0  0  0  0  0  0  0  0
    2.5836    0.1423    0.0000 N   0  0  0  0  0  0  0  0  0  0  0  0
    6.9939   -1.5530    0.0000 N   0  0  0  0  0  0  0  0  0  0  0  0
    2.0000    0.9470    0.0000 N   0  0  0  0  0  0  0  0  0  0  0  0
    5.2619    0.4470    0.0000 C   0  0  0  0  0  0  0  0  0  0  0  0
    6.1279   -0.0530    0.0000 C   0  0  0  0  0  0  0  0  0  0  0  0
    7.8600   -0.0530    0.0000 C   0  0  0  0  0  0  0  0  0  0  0  0
    3.5298    0.4470    0.0000 C   0  0  0  0  0  0  0  0  0  0  0  0
    4.3958   -0.0530    0.0000 C   0  0  0  0  0  0  0  0  0  0  0  0
    3.5298    1.4470    0.0000 C   0  0  0  0  0  0  0  0  0  0  0  0
    6.9939    0.4470    0.0000 C   0  0  0  0  0  0  0  0  0  0  0  0
    7.8600   -1.0530    0.0000 C   0  0  0  0  0  0  0  0  0  0  0  0
    5.2619    1.4470    0.0000 C   0  0  0  0  0  0  0  0  0  0  0  0
    4.3958    1.9470    0.0000 C   0  0  0  0  0  0  0  0  0  0  0  0
    6.1279   -1.0530    0.0000 C   0  0  0  0  0  0  0  0  0  0  0  0
    8.8062    0.2518    0.0000 C   0  0  0  0  0  0  0  0  0  0  0  0
    2.5836    1.7518    0.0000 C   0  0  0  0  0  0  0  0  0  0  0  0
    9.3898   -0.5530    0.0000 C   0  0  0  0  0  0  0  0  0  0  0  0
    4.3958   -0.6730    0.0000 H   0  0  0  0  0  0  0  0  0  0  0  0
    6.9939    1.0670    0.0000 H   0  0  0  0  0  0  0  0  0  0  0  0
    5.7988    1.7570    0.0000 H   0  0  0  0  0  0  0  0  0  0  0  0
    4.3958    2.5670    0.0000 H   0  0  0  0  0  0  0  0  0  0  0  0
    5.5910   -1.3630    0.0000 H   0  0  0  0  0  0  0  0  0  0  0  0
    8.9988    0.8411    0.0000 H   0  0  0  0  0  0  0  0  0  0  0  0
    8.9988   -1.9470    0.0000 H   0  0  0  0  0  0  0  0  0  0  0  0
    2.3910   -0.4470    0.0000 H   0  0  0  0  0  0  0  0  0  0  0  0
   10.0098   -0.5530    0.0000 H   0  0  0  0  0  0  0  0  0  0  0  0
    2.3910    2.3411    0.0000 H   0  0  0  0  0  0  0  0  0  0  0  0
  1 12  1  0  0  0  0
  1 18  1  0  0  0  0
  1 25  1  0  0  0  0
  2  4  1  0  0  0  0
  2  8  1  0  0  0  0
  2 26  1  0  0  0  0
  3 12  2  0  0  0  0
  3 15  1  0  0  0  0
  4 17  2  0  0  0  0
  5  6  1  0  0  0  0
  5  9  2  0  0  0  0
  5 13  1  0  0  0  0
  6 11  1  0  0  0  0
  6 15  2  0  0  0  0
  7 11  2  0  0  0  0
  7 12  1  0  0  0  0
  7 16  1  0  0  0  0
  8  9  1  0  0  0  0
  8 10  2  0  0  0  0
  9 19  1  0  0  0  0
 10 14  1  0  0  0  0
 10 17  1  0  0  0  0
 11 20  1  0  0  0  0
 13 14  2  0  0  0  0
 13 21  1  0  0  0  0
 14 22  1  0  0  0  0
 15 23  1  0  0  0  0
 16 18  2  0  0  0  0
 16 24  1  0  0  0  0
 17 28  1  0  0  0  0
 18 27  1  0  0  0  0
M  END
> <PUBCHEM_COMPOUND_CID>
49830865

> <PUBCHEM_COMPOUND_CANONICALIZED>
1

> <PUBCHEM_CACTVS_COMPLEXITY>
308

> <PUBCHEM_CACTVS_HBOND_ACCEPTOR>
2

> <PUBCHEM_CACTVS_HBOND_DONOR>
2

> <PUBCHEM_CACTVS_ROTATABLE_BOND>
1

> <PUBCHEM_CACTVS_SUBSKEYS>
AAADccBzgAAAAAAAAAAAAAAAAAAAAWLAAAA8QAAAAAAAAFgB/gAAHAAYAAAADAjBHwQ98P7rkACiAzZnZACShCmxgqAZ+aA4ZJiIKOLA2dGEpAhomALIyCcQgMAOwAAAQAACAACAAACAAAQAAAAAAAAAAA==

> <PUBCHEM_IUPAC_OPENEYE_NAME>
5-(1H-indazol-6-yl)-1H-pyrrolo[2,3-b]pyridine

> <PUBCHEM_IUPAC_CAS_NAME>
5-(1H-indazol-6-yl)-1H-pyrrolo[2,3-b]pyridine

> <PUBCHEM_IUPAC_NAME_MARKUP>
5-(1<I>H</I>-indazol-6-yl)-1<I>H</I>-pyrrolo[2,3-b]pyridine

> <PUBCHEM_IUPAC_NAME>
5-(1H-indazol-6-yl)-1H-pyrrolo[2,3-b]pyridine

> <PUBCHEM_IUPAC_SYSTEMATIC_NAME>
5-(1H-indazol-6-yl)-1H-pyrrolo[2,3-b]pyridine

> <PUBCHEM_IUPAC_TRADITIONAL_NAME>
5-(1H-indazol-6-yl)-1H-pyrrolo[2,3-b]pyridine

> <PUBCHEM_IUPAC_INCHI>
InChI=1S/C14H10N4/c1-2-11-8-17-18-13(11)6-9(1)12-5-10-3-4-15-14(10)16-7-12/h1-8H,(H,15,16)(H,17,18)

> <PUBCHEM_IUPAC_INCHIKEY>
ZLVOTRRGLSDLPF-UHFFFAOYSA-N

> <PUBCHEM_XLOGP3_AA>
2.6

> <PUBCHEM_EXACT_MASS>
234.090546336

> <PUBCHEM_MOLECULAR_FORMULA>
C14H10N4

> <PUBCHEM_MOLECULAR_WEIGHT>
234.26

> <PUBCHEM_SMILES>
C1=CC2=C(C=C1C3=CN=C4C(=C3)C=CN4)NN=C2

> <PUBCHEM_OPENEYE_CAN_SMILES>
C1=CC2=C(C=C1C3=CN=C4C(=C3)C=CN4)NN=C2

> <PUBCHEM_OPENEYE_ISO_SMILES>
C1=CC2=C(C=C1C3=CN=C4C(=C3)C=CN4)NN=C2

> <PUBCHEM_CACTVS_TPSA>
57.4

> <PUBCHEM_MONOISOTOPIC_WEIGHT>
234.090546336

> <PUBCHEM_TOTAL_CHARGE>
0

> <PUBCHEM_HEAVY_ATOM_COUNT>
18

> <PUBCHEM_ATOM_DEF_STEREO_COUNT>
0

> <PUBCHEM_ATOM_UDEF_STEREO_COUNT>
0

> <PUBCHEM_BOND_DEF_STEREO_COUNT>
0

> <PUBCHEM_BOND_UDEF_STEREO_COUNT>
0

> <PUBCHEM_ISOTOPIC_ATOM_COUNT>
0

> <PUBCHEM_COMPONENT_COUNT>
1

> <PUBCHEM_CACTVS_TAUTO_COUNT>
-1

> <PUBCHEM_COORDINATE_TYPE>
1
5
255

> <PUBCHEM_BONDANNOTATIONS>
1  12  8
1  18  8
10  14  8
10  17  8
13  14  8
16  18  8
2  4  8
2  8  8
3  12  8
3  15  8
4  17  8
5  13  8
5  9  8
6  11  8
6  15  8
7  11  8
7  12  8
7  16  8
8  10  8
8  9  8

$$$$
