11164136
  -OEChem-03202500462D

 47 50  0     0  0  0  0  0  0999 V2000
    3.7320    0.9470    0.0000 O   0  0  0  0  0  0  0  0  0  0  0  0
    7.2764   -4.8577    0.0000 N   0  0  0  0  0  0  0  0  0  0  0  0
    7.8600   -4.0530    0.0000 N   0  0  0  0  0  0  0  0  0  0  0  0
    4.5981    2.4470    0.0000 N   0  0  0  0  0  0  0  0  0  0  0  0
    7.5870   -2.2977    0.0000 N   0  0  0  0  0  0  0  0  0  0  0  0
    5.4641   -3.0530    0.0000 C   0  0  0  0  0  0  0  0  0  0  0  0
    6.3301   -3.5530    0.0000 C   0  0  0  0  0  0  0  0  0  0  0  0
    5.4641   -2.0530    0.0000 C   0  0  0  0  0  0  0  0  0  0  0  0
    6.3301   -4.5530    0.0000 C   0  0  0  0  0  0  0  0  0  0  0  0
    5.4641   -0.0530    0.0000 C   0  0  0  0  0  0  0  0  0  0  0  0
    4.5981   -3.5530    0.0000 C   0  0  0  0  0  0  0  0  0  0  0  0
    7.2764   -3.2482    0.0000 C   0  0  0  0  0  0  0  0  0  0  0  0
    4.5981   -1.5530    0.0000 C   0  0  0  0  0  0  0  0  0  0  0  0
    6.3301   -1.5530    0.0000 C   0  0  0  0  0  0  0  0  0  0  0  0
    5.4641    0.9470    0.0000 C   0  0  0  0  0  0  0  0  0  0  0  0
    4.5981   -0.5530    0.0000 C   0  0  0  0  0  0  0  0  0  0  0  0
    6.3301   -0.5530    0.0000 C   0  0  0  0  0  0  0  0  0  0  0  0
    5.4641   -5.0530    0.0000 C   0  0  0  0  0  0  0  0  0  0  0  0
    4.5981   -4.5530    0.0000 C   0  0  0  0  0  0  0  0  0  0  0  0
    4.5981    1.4470    0.0000 C   0  0  0  0  0  0  0  0  0  0  0  0
    3.7320    2.9470    0.0000 C   0  0  0  0  0  0  0  0  0  0  0  0
    3.7320    3.9470    0.0000 C   0  0  0  0  0  0  0  0  0  0  0  0
    2.8660    4.4470    0.0000 C   0  0  0  0  0  0  0  0  0  0  0  0
    2.8660    2.4470    0.0000 C   0  0  0  0  0  0  0  0  0  0  0  0
    2.0000    3.9470    0.0000 C   0  0  0  0  0  0  0  0  0  0  0  0
    2.0000    2.9470    0.0000 C   0  0  0  0  0  0  0  0  0  0  0  0
    2.8660    5.4470    0.0000 C   0  0  0  0  0  0  0  0  0  0  0  0
    4.0611   -3.2430    0.0000 H   0  0  0  0  0  0  0  0  0  0  0  0
    4.0611   -1.8630    0.0000 H   0  0  0  0  0  0  0  0  0  0  0  0
    6.8671   -1.8630    0.0000 H   0  0  0  0  0  0  0  0  0  0  0  0
    6.0747    0.8394    0.0000 H   0  0  0  0  0  0  0  0  0  0  0  0
    5.6762    1.5296    0.0000 H   0  0  0  0  0  0  0  0  0  0  0  0
    4.0611   -0.2430    0.0000 H   0  0  0  0  0  0  0  0  0  0  0  0
    6.8671   -0.2430    0.0000 H   0  0  0  0  0  0  0  0  0  0  0  0
    5.4641   -5.6730    0.0000 H   0  0  0  0  0  0  0  0  0  0  0  0
    4.0611   -4.8630    0.0000 H   0  0  0  0  0  0  0  0  0  0  0  0
    7.4690   -5.4470    0.0000 H   0  0  0  0  0  0  0  0  0  0  0  0
    5.1350    2.7570    0.0000 H   0  0  0  0  0  0  0  0  0  0  0  0
    8.1937   -2.1699    0.0000 H   0  0  0  0  0  0  0  0  0  0  0  0
    7.1730   -1.8362    0.0000 H   0  0  0  0  0  0  0  0  0  0  0  0
    4.2690    4.2570    0.0000 H   0  0  0  0  0  0  0  0  0  0  0  0
    2.8660    1.8270    0.0000 H   0  0  0  0  0  0  0  0  0  0  0  0
    1.4631    4.2570    0.0000 H   0  0  0  0  0  0  0  0  0  0  0  0
    1.4631    2.6370    0.0000 H   0  0  0  0  0  0  0  0  0  0  0  0
    3.4860    5.4470    0.0000 H   0  0  0  0  0  0  0  0  0  0  0  0
    2.8660    6.0670    0.0000 H   0  0  0  0  0  0  0  0  0  0  0  0
    2.2460    5.4470    0.0000 H   0  0  0  0  0  0  0  0  0  0  0  0
  1 20  2  0  0  0  0
  2  3  1  0  0  0  0
  2  9  1  0  0  0  0
  2 37  1  0  0  0  0
  3 12  2  0  0  0  0
  4 20  1  0  0  0  0
  4 21  1  0  0  0  0
  4 38  1  0  0  0  0
  5 12  1  0  0  0  0
  5 39  1  0  0  0  0
  5 40  1  0  0  0  0
  6  7  2  0  0  0  0
  6  8  1  0  0  0  0
  6 11  1  0  0  0  0
  7  9  1  0  0  0  0
  7 12  1  0  0  0  0
  8 13  2  0  0  0  0
  8 14  1  0  0  0  0
  9 18  2  0  0  0  0
 10 15  1  0  0  0  0
 10 16  2  0  0  0  0
 10 17  1  0  0  0  0
 11 19  2  0  0  0  0
 11 28  1  0  0  0  0
 13 16  1  0  0  0  0
 13 29  1  0  0  0  0
 14 17  2  0  0  0  0
 14 30  1  0  0  0  0
 15 20  1  0  0  0  0
 15 31  1  0  0  0  0
 15 32  1  0  0  0  0
 16 33  1  0  0  0  0
 17 34  1  0  0  0  0
 18 19  1  0  0  0  0
 18 35  1  0  0  0  0
 19 36  1  0  0  0  0
 21 22  1  0  0  0  0
 21 24  2  0  0  0  0
 22 23  2  0  0  0  0
 22 41  1  0  0  0  0
 23 25  1  0  0  0  0
 23 27  1  0  0  0  0
 24 26  1  0  0  0  0
 24 42  1  0  0  0  0
 25 26  2  0  0  0  0
 25 43  1  0  0  0  0
 26 44  1  0  0  0  0
 27 45  1  0  0  0  0
 27 46  1  0  0  0  0
 27 47  1  0  0  0  0
M  END
> <PUBCHEM_COMPOUND_CID>
11164136

> <PUBCHEM_COMPOUND_CANONICALIZED>
1

> <PUBCHEM_CACTVS_COMPLEXITY>
505

> <PUBCHEM_CACTVS_HBOND_ACCEPTOR>
3

> <PUBCHEM_CACTVS_HBOND_DONOR>
3

> <PUBCHEM_CACTVS_ROTATABLE_BOND>
4

> <PUBCHEM_CACTVS_SUBSKEYS>
AAADceB7oAAAAAAAAAAAAAAAAAAAAWAAAAAwYMAAAAAAAFgB9AAAHgAYAAAADAiBngAz8PLjAACqAydycACSBAIhAgAcuSEwZJgIILLA1dGEpAhwnADIyAcYiMCOwAAAQAASAACAAACAACQAAAAAAAAAAA==

> <PUBCHEM_IUPAC_OPENEYE_NAME>
2-[4-(3-amino-1H-indazol-4-yl)phenyl]-N-(m-tolyl)acetamide

> <PUBCHEM_IUPAC_CAS_NAME>
2-[4-(3-amino-1H-indazol-4-yl)phenyl]-N-(3-methylphenyl)acetamide

> <PUBCHEM_IUPAC_NAME_MARKUP>
2-[4-(3-amino-1<I>H</I>-indazol-4-yl)phenyl]-<I>N</I>-(3-methylphenyl)acetamide

> <PUBCHEM_IUPAC_NAME>
2-[4-(3-amino-1H-indazol-4-yl)phenyl]-N-(3-methylphenyl)acetamide

> <PUBCHEM_IUPAC_SYSTEMATIC_NAME>
2-[4-(3-azanyl-1H-indazol-4-yl)phenyl]-N-(3-methylphenyl)ethanamide

> <PUBCHEM_IUPAC_TRADITIONAL_NAME>
2-[4-(3-amino-1H-indazol-4-yl)phenyl]-N-(m-tolyl)acetamide

> <PUBCHEM_IUPAC_INCHI>
InChI=1S/C22H20N4O/c1-14-4-2-5-17(12-14)24-20(27)13-15-8-10-16(11-9-15)18-6-3-7-19-21(18)22(23)26-25-19/h2-12H,13H2,1H3,(H,24,27)(H3,23,25,26)

> <PUBCHEM_IUPAC_INCHIKEY>
APUCFXHENVUXCY-UHFFFAOYSA-N

> <PUBCHEM_XLOGP3_AA>
4

> <PUBCHEM_EXACT_MASS>
356.16371127

> <PUBCHEM_MOLECULAR_FORMULA>
C22H20N4O

> <PUBCHEM_MOLECULAR_WEIGHT>
356.4

> <PUBCHEM_SMILES>
CC1=CC(=CC=C1)NC(=O)CC2=CC=C(C=C2)C3=C4C(=CC=C3)NN=C4N

> <PUBCHEM_OPENEYE_CAN_SMILES>
CC1=CC(=CC=C1)NC(=O)CC2=CC=C(C=C2)C3=C4C(=CC=C3)NN=C4N

> <PUBCHEM_OPENEYE_ISO_SMILES>
CC1=CC(=CC=C1)NC(=O)CC2=CC=C(C=C2)C3=C4C(=CC=C3)NN=C4N

> <PUBCHEM_CACTVS_TPSA>
83.8

> <PUBCHEM_MONOISOTOPIC_WEIGHT>
356.16371127

> <PUBCHEM_TOTAL_CHARGE>
0

> <PUBCHEM_HEAVY_ATOM_COUNT>
27

> <PUBCHEM_ATOM_DEF_STEREO_COUNT>
0

> <PUBCHEM_ATOM_UDEF_STEREO_COUNT>
0

> <PUBCHEM_BOND_DEF_STEREO_COUNT>
0

> <PUBCHEM_BOND_UDEF_STEREO_COUNT>
0

> <PUBCHEM_ISOTOPIC_ATOM_COUNT>
0

> <PUBCHEM_COMPONENT_COUNT>
1

> <PUBCHEM_CACTVS_TAUTO_COUNT>
-1

> <PUBCHEM_COORDINATE_TYPE>
1
5
255

> <PUBCHEM_BONDANNOTATIONS>
10  16  8
10  17  8
11  19  8
13  16  8
14  17  8
18  19  8
2  3  8
2  9  8
21  22  8
21  24  8
22  23  8
23  25  8
24  26  8
25  26  8
3  12  8
6  11  8
6  7  8
7  12  8
7  9  8
8  13  8
8  14  8
9  18  8

$$$$
