49830463
  -OEChem-03202503262D

 44 47  0     0  0  0  0  0  0999 V2000
    6.3690   -2.0997    0.0000 O   0  0  0  0  0  0  0  0  0  0  0  0
    5.1646    0.2907    0.0000 N   0  0  0  0  0  0  0  0  0  0  0  0
    6.6428    0.9488    0.0000 N   0  0  0  0  0  0  0  0  0  0  0  0
    5.6646    1.1567    0.0000 N   0  0  0  0  0  0  0  0  0  0  0  0
    4.6748   -1.7396    0.0000 N   0  0  0  0  0  0  0  0  0  0  0  0
   10.2916   -1.8504    0.0000 N   0  0  0  0  0  0  0  0  0  0  0  0
   10.8752   -1.0457    0.0000 N   0  0  0  0  0  0  0  0  0  0  0  0
    5.8338   -0.4524    0.0000 C   0  0  0  0  0  0  0  0  0  0  0  0
    6.7473   -0.0457    0.0000 C   0  0  0  0  0  0  0  0  0  0  0  0
    7.6133   -0.5457    0.0000 C   0  0  0  0  0  0  0  0  0  0  0  0
    4.1701    0.1862    0.0000 C   0  0  0  0  0  0  0  0  0  0  0  0
    9.3454   -0.5457    0.0000 C   0  0  0  0  0  0  0  0  0  0  0  0
    8.4793   -0.0457    0.0000 C   0  0  0  0  0  0  0  0  0  0  0  0
    3.5823    0.9952    0.0000 C   0  0  0  0  0  0  0  0  0  0  0  0
    5.6258   -1.4306    0.0000 C   0  0  0  0  0  0  0  0  0  0  0  0
    9.3454   -1.5457    0.0000 C   0  0  0  0  0  0  0  0  0  0  0  0
    7.6133   -1.5457    0.0000 C   0  0  0  0  0  0  0  0  0  0  0  0
    8.4793   -2.0457    0.0000 C   0  0  0  0  0  0  0  0  0  0  0  0
   10.2916   -0.2410    0.0000 C   0  0  0  0  0  0  0  0  0  0  0  0
    3.9890    1.9087    0.0000 C   0  0  0  0  0  0  0  0  0  0  0  0
    2.5878    0.8907    0.0000 C   0  0  0  0  0  0  0  0  0  0  0  0
    4.4669   -2.7178    0.0000 C   0  0  0  0  0  0  0  0  0  0  0  0
    3.9316   -1.0705    0.0000 C   0  0  0  0  0  0  0  0  0  0  0  0
    3.4013    2.7178    0.0000 C   0  0  0  0  0  0  0  0  0  0  0  0
    2.0000    1.6997    0.0000 C   0  0  0  0  0  0  0  0  0  0  0  0
    2.4067    2.6132    0.0000 C   0  0  0  0  0  0  0  0  0  0  0  0
    3.6128   -0.0856    0.0000 H   0  0  0  0  0  0  0  0  0  0  0  0
    4.3410   -0.4098    0.0000 H   0  0  0  0  0  0  0  0  0  0  0  0
    8.4793    0.5743    0.0000 H   0  0  0  0  0  0  0  0  0  0  0  0
    7.0764   -1.8557    0.0000 H   0  0  0  0  0  0  0  0  0  0  0  0
    8.4793   -2.6657    0.0000 H   0  0  0  0  0  0  0  0  0  0  0  0
   10.4842    0.3484    0.0000 H   0  0  0  0  0  0  0  0  0  0  0  0
    4.6056    1.9735    0.0000 H   0  0  0  0  0  0  0  0  0  0  0  0
    2.3356    0.3243    0.0000 H   0  0  0  0  0  0  0  0  0  0  0  0
   10.4842   -2.4398    0.0000 H   0  0  0  0  0  0  0  0  0  0  0  0
    3.8604   -2.5888    0.0000 H   0  0  0  0  0  0  0  0  0  0  0  0
    4.3380   -3.3242    0.0000 H   0  0  0  0  0  0  0  0  0  0  0  0
    5.0733   -2.8467    0.0000 H   0  0  0  0  0  0  0  0  0  0  0  0
    4.3465   -0.6097    0.0000 H   0  0  0  0  0  0  0  0  0  0  0  0
    3.4709   -0.6556    0.0000 H   0  0  0  0  0  0  0  0  0  0  0  0
    3.5168   -1.5312    0.0000 H   0  0  0  0  0  0  0  0  0  0  0  0
    3.6534    3.2842    0.0000 H   0  0  0  0  0  0  0  0  0  0  0  0
    1.3834    1.6349    0.0000 H   0  0  0  0  0  0  0  0  0  0  0  0
    2.0423    3.1148    0.0000 H   0  0  0  0  0  0  0  0  0  0  0  0
  1 15  2  0  0  0  0
  2  4  1  0  0  0  0
  2  8  1  0  0  0  0
  2 11  1  0  0  0  0
  3  4  2  0  0  0  0
  3  9  1  0  0  0  0
  5 15  1  0  0  0  0
  5 22  1  0  0  0  0
  5 23  1  0  0  0  0
  6  7  1  0  0  0  0
  6 16  1  0  0  0  0
  6 35  1  0  0  0  0
  7 19  2  0  0  0  0
  8  9  2  0  0  0  0
  8 15  1  0  0  0  0
  9 10  1  0  0  0  0
 10 13  2  0  0  0  0
 10 17  1  0  0  0  0
 11 14  1  0  0  0  0
 11 27  1  0  0  0  0
 11 28  1  0  0  0  0
 12 13  1  0  0  0  0
 12 16  2  0  0  0  0
 12 19  1  0  0  0  0
 13 29  1  0  0  0  0
 14 20  2  0  0  0  0
 14 21  1  0  0  0  0
 16 18  1  0  0  0  0
 17 18  2  0  0  0  0
 17 30  1  0  0  0  0
 18 31  1  0  0  0  0
 19 32  1  0  0  0  0
 20 24  1  0  0  0  0
 20 33  1  0  0  0  0
 21 25  2  0  0  0  0
 21 34  1  0  0  0  0
 22 36  1  0  0  0  0
 22 37  1  0  0  0  0
 22 38  1  0  0  0  0
 23 39  1  0  0  0  0
 23 40  1  0  0  0  0
 23 41  1  0  0  0  0
 24 26  2  0  0  0  0
 24 42  1  0  0  0  0
 25 26  1  0  0  0  0
 25 43  1  0  0  0  0
 26 44  1  0  0  0  0
M  END
> <PUBCHEM_COMPOUND_CID>
49830463

> <PUBCHEM_COMPOUND_CANONICALIZED>
1

> <PUBCHEM_CACTVS_COMPLEXITY>
494

> <PUBCHEM_CACTVS_HBOND_ACCEPTOR>
4

> <PUBCHEM_CACTVS_HBOND_DONOR>
1

> <PUBCHEM_CACTVS_ROTATABLE_BOND>
4

> <PUBCHEM_CACTVS_SUBSKEYS>
AAADceB7oAAAAAAAAAAAAAAAAAAAAWLAAAAwYAAAAAAAAFgB/AAAHgAYAAAADAjBngQ+wPNrAACqAzV3VACSBAQnkgAY+SG4dNgIYLrA0fGUpYhgmgDIyUcYiMCOCAACAAACAAAQAAQAAAQAAAAAAAAAAA==

> <PUBCHEM_IUPAC_OPENEYE_NAME>
3-benzyl-5-(1H-indazol-5-yl)-N,N-dimethyl-triazole-4-carboxamide

> <PUBCHEM_IUPAC_CAS_NAME>
5-(1H-indazol-5-yl)-N,N-dimethyl-3-(phenylmethyl)-4-triazolecarboxamide

> <PUBCHEM_IUPAC_NAME_MARKUP>
3-benzyl-5-(1<I>H</I>-indazol-5-yl)-<I>N</I>,<I>N</I>-dimethyltriazole-4-carboxamide

> <PUBCHEM_IUPAC_NAME>
3-benzyl-5-(1H-indazol-5-yl)-N,N-dimethyltriazole-4-carboxamide

> <PUBCHEM_IUPAC_SYSTEMATIC_NAME>
5-(1H-indazol-5-yl)-N,N-dimethyl-3-(phenylmethyl)-1,2,3-triazole-4-carboxamide

> <PUBCHEM_IUPAC_TRADITIONAL_NAME>
3-benzyl-5-(1H-indazol-5-yl)-N,N-dimethyl-triazole-4-carboxamide

> <PUBCHEM_IUPAC_INCHI>
InChI=1S/C19H18N6O/c1-24(2)19(26)18-17(14-8-9-16-15(10-14)11-20-21-16)22-23-25(18)12-13-6-4-3-5-7-13/h3-11H,12H2,1-2H3,(H,20,21)

> <PUBCHEM_IUPAC_INCHIKEY>
MIYRKQLKDQNUKZ-UHFFFAOYSA-N

> <PUBCHEM_XLOGP3_AA>
2.4

> <PUBCHEM_EXACT_MASS>
346.15420922

> <PUBCHEM_MOLECULAR_FORMULA>
C19H18N6O

> <PUBCHEM_MOLECULAR_WEIGHT>
346.4

> <PUBCHEM_SMILES>
CN(C)C(=O)C1=C(N=NN1CC2=CC=CC=C2)C3=CC4=C(C=C3)NN=C4

> <PUBCHEM_OPENEYE_CAN_SMILES>
CN(C)C(=O)C1=C(N=NN1CC2=CC=CC=C2)C3=CC4=C(C=C3)NN=C4

> <PUBCHEM_OPENEYE_ISO_SMILES>
CN(C)C(=O)C1=C(N=NN1CC2=CC=CC=C2)C3=CC4=C(C=C3)NN=C4

> <PUBCHEM_CACTVS_TPSA>
79.7

> <PUBCHEM_MONOISOTOPIC_WEIGHT>
346.15420922

> <PUBCHEM_TOTAL_CHARGE>
0

> <PUBCHEM_HEAVY_ATOM_COUNT>
26

> <PUBCHEM_ATOM_DEF_STEREO_COUNT>
0

> <PUBCHEM_ATOM_UDEF_STEREO_COUNT>
0

> <PUBCHEM_BOND_DEF_STEREO_COUNT>
0

> <PUBCHEM_BOND_UDEF_STEREO_COUNT>
0

> <PUBCHEM_ISOTOPIC_ATOM_COUNT>
0

> <PUBCHEM_COMPONENT_COUNT>
1

> <PUBCHEM_CACTVS_TAUTO_COUNT>
-1

> <PUBCHEM_COORDINATE_TYPE>
1
5
255

> <PUBCHEM_BONDANNOTATIONS>
10  13  8
10  17  8
12  13  8
12  16  8
12  19  8
14  20  8
14  21  8
16  18  8
17  18  8
2  4  8
2  8  8
20  24  8
21  25  8
24  26  8
25  26  8
3  4  8
3  9  8
6  16  8
6  7  8
7  19  8
8  9  8

$$$$
