2399
  -OEChem-03202505082D

 38 42  0     0  0  0  0  0  0999 V2000
    3.4026    1.2824    0.0000 O   0  0  0  0  0  0  0  0  0  0  0  0
    6.7523    2.3644    0.0000 O   0  0  0  0  0  0  0  0  0  0  0  0
    4.6783   -2.0893    0.0000 N   0  0  0  0  0  0  0  0  0  0  0  0
    7.6900   -1.1165    0.0000 N   0  0  0  0  0  0  0  0  0  0  0  0
    4.9917    2.0887    0.0000 N   0  0  0  0  0  0  0  0  0  0  0  0
    4.9889    0.4706    0.0000 C   0  0  0  0  0  0  0  0  0  0  0  0
    5.9405    0.7780    0.0000 C   0  0  0  0  0  0  0  0  0  0  0  0
    4.6783   -0.4799    0.0000 C   0  0  0  0  0  0  0  0  0  0  0  0
    6.7485    0.1888    0.0000 C   0  0  0  0  0  0  0  0  0  0  0  0
    3.7320   -0.7846    0.0000 C   0  0  0  0  0  0  0  0  0  0  0  0
    7.6942    0.4952    0.0000 C   0  0  0  0  0  0  0  0  0  0  0  0
    3.7320   -1.7846    0.0000 C   0  0  0  0  0  0  0  0  0  0  0  0
    8.2792   -0.3158    0.0000 C   0  0  0  0  0  0  0  0  0  0  0  0
    4.4026    1.2807    0.0000 C   0  0  0  0  0  0  0  0  0  0  0  0
    5.9422    1.7780    0.0000 C   0  0  0  0  0  0  0  0  0  0  0  0
    5.2619   -1.2846    0.0000 C   0  0  0  0  0  0  0  0  0  0  0  0
    6.7459   -0.8052    0.0000 C   0  0  0  0  0  0  0  0  0  0  0  0
    2.8660   -0.2846    0.0000 C   0  0  0  0  0  0  0  0  0  0  0  0
    8.1041    1.4073    0.0000 C   0  0  0  0  0  0  0  0  0  0  0  0
    2.8660   -2.2846    0.0000 C   0  0  0  0  0  0  0  0  0  0  0  0
    9.2741   -0.2148    0.0000 C   0  0  0  0  0  0  0  0  0  0  0  0
    2.0000   -0.7846    0.0000 C   0  0  0  0  0  0  0  0  0  0  0  0
    9.0990    1.5084    0.0000 C   0  0  0  0  0  0  0  0  0  0  0  0
    2.0000   -1.7846    0.0000 C   0  0  0  0  0  0  0  0  0  0  0  0
    9.6840    0.6974    0.0000 C   0  0  0  0  0  0  0  0  0  0  0  0
    5.8819   -1.2846    0.0000 H   0  0  0  0  0  0  0  0  0  0  0  0
    6.2431   -1.1679    0.0000 H   0  0  0  0  0  0  0  0  0  0  0  0
    4.8709   -2.6787    0.0000 H   0  0  0  0  0  0  0  0  0  0  0  0
    7.8786   -1.7072    0.0000 H   0  0  0  0  0  0  0  0  0  0  0  0
    4.8012    2.6787    0.0000 H   0  0  0  0  0  0  0  0  0  0  0  0
    2.8660    0.3354    0.0000 H   0  0  0  0  0  0  0  0  0  0  0  0
    7.7414    1.9102    0.0000 H   0  0  0  0  0  0  0  0  0  0  0  0
    2.8660   -2.9046    0.0000 H   0  0  0  0  0  0  0  0  0  0  0  0
    9.6368   -0.7176    0.0000 H   0  0  0  0  0  0  0  0  0  0  0  0
    1.4631   -0.4746    0.0000 H   0  0  0  0  0  0  0  0  0  0  0  0
    9.3531    2.0739    0.0000 H   0  0  0  0  0  0  0  0  0  0  0  0
    1.4631   -2.0946    0.0000 H   0  0  0  0  0  0  0  0  0  0  0  0
   10.3008    0.7600    0.0000 H   0  0  0  0  0  0  0  0  0  0  0  0
  1 14  2  0  0  0  0
  2 15  2  0  0  0  0
  3 12  1  0  0  0  0
  3 16  1  0  0  0  0
  3 28  1  0  0  0  0
  4 13  1  0  0  0  0
  4 17  1  0  0  0  0
  4 29  1  0  0  0  0
  5 14  1  0  0  0  0
  5 15  1  0  0  0  0
  5 30  1  0  0  0  0
  6  7  2  0  0  0  0
  6  8  1  0  0  0  0
  6 14  1  0  0  0  0
  7  9  1  0  0  0  0
  7 15  1  0  0  0  0
  8 10  1  0  0  0  0
  8 16  2  0  0  0  0
  9 11  1  0  0  0  0
  9 17  2  0  0  0  0
 10 12  1  0  0  0  0
 10 18  2  0  0  0  0
 11 13  1  0  0  0  0
 11 19  2  0  0  0  0
 12 20  2  0  0  0  0
 13 21  2  0  0  0  0
 16 26  1  0  0  0  0
 17 27  1  0  0  0  0
 18 22  1  0  0  0  0
 18 31  1  0  0  0  0
 19 23  1  0  0  0  0
 19 32  1  0  0  0  0
 20 24  1  0  0  0  0
 20 33  1  0  0  0  0
 21 25  1  0  0  0  0
 21 34  1  0  0  0  0
 22 24  2  0  0  0  0
 22 35  1  0  0  0  0
 23 25  2  0  0  0  0
 23 36  1  0  0  0  0
 24 37  1  0  0  0  0
 25 38  1  0  0  0  0
M  END
> <PUBCHEM_COMPOUND_CID>
2399

> <PUBCHEM_COMPOUND_CANONICALIZED>
1

> <PUBCHEM_CACTVS_COMPLEXITY>
576

> <PUBCHEM_CACTVS_HBOND_ACCEPTOR>
2

> <PUBCHEM_CACTVS_HBOND_DONOR>
3

> <PUBCHEM_CACTVS_ROTATABLE_BOND>
2

> <PUBCHEM_CACTVS_SUBSKEYS>
AAADccB7MAAAAAAAAAAAAAAAAAAAAWLEAAAwYAAAAAAAAFgB/gAAHgAQAAAADAjBngQ8wPLJkACoAzV3VACCgCAxAiAI2aE4ZNgIIPLAlZGEIAhglCDIyQccicCegAAAAAACAAAAAAAAAAQAAAAAAAAAAA==

> <PUBCHEM_IUPAC_OPENEYE_NAME>
3,4-bis(1H-indol-3-yl)pyrrole-2,5-dione

> <PUBCHEM_IUPAC_CAS_NAME>
3,4-bis(1H-indol-3-yl)pyrrole-2,5-dione

> <PUBCHEM_IUPAC_NAME_MARKUP>
3,4-bis(1<I>H</I>-indol-3-yl)pyrrole-2,5-dione

> <PUBCHEM_IUPAC_NAME>
3,4-bis(1H-indol-3-yl)pyrrole-2,5-dione

> <PUBCHEM_IUPAC_SYSTEMATIC_NAME>
3,4-bis(1H-indol-3-yl)pyrrole-2,5-dione

> <PUBCHEM_IUPAC_TRADITIONAL_NAME>
3,4-bis(1H-indol-3-yl)-3-pyrroline-2,5-quinone

> <PUBCHEM_IUPAC_INCHI>
InChI=1S/C20H13N3O2/c24-19-17(13-9-21-15-7-3-1-5-11(13)15)18(20(25)23-19)14-10-22-16-8-4-2-6-12(14)16/h1-10,21-22H,(H,23,24,25)

> <PUBCHEM_IUPAC_INCHIKEY>
DQYBRTASHMYDJG-UHFFFAOYSA-N

> <PUBCHEM_XLOGP3_AA>
2.8

> <PUBCHEM_EXACT_MASS>
327.100776666

> <PUBCHEM_MOLECULAR_FORMULA>
C20H13N3O2

> <PUBCHEM_MOLECULAR_WEIGHT>
327.3

> <PUBCHEM_SMILES>
C1=CC=C2C(=C1)C(=CN2)C3=C(C(=O)NC3=O)C4=CNC5=CC=CC=C54

> <PUBCHEM_OPENEYE_CAN_SMILES>
C1=CC=C2C(=C1)C(=CN2)C3=C(C(=O)NC3=O)C4=CNC5=CC=CC=C54

> <PUBCHEM_OPENEYE_ISO_SMILES>
C1=CC=C2C(=C1)C(=CN2)C3=C(C(=O)NC3=O)C4=CNC5=CC=CC=C54

> <PUBCHEM_CACTVS_TPSA>
77.8

> <PUBCHEM_MONOISOTOPIC_WEIGHT>
327.100776666

> <PUBCHEM_TOTAL_CHARGE>
0

> <PUBCHEM_HEAVY_ATOM_COUNT>
25

> <PUBCHEM_ATOM_DEF_STEREO_COUNT>
0

> <PUBCHEM_ATOM_UDEF_STEREO_COUNT>
0

> <PUBCHEM_BOND_DEF_STEREO_COUNT>
0

> <PUBCHEM_BOND_UDEF_STEREO_COUNT>
0

> <PUBCHEM_ISOTOPIC_ATOM_COUNT>
0

> <PUBCHEM_COMPONENT_COUNT>
1

> <PUBCHEM_CACTVS_TAUTO_COUNT>
-1

> <PUBCHEM_COORDINATE_TYPE>
1
5
255

> <PUBCHEM_BONDANNOTATIONS>
10  12  8
10  18  8
11  13  8
11  19  8
12  20  8
13  21  8
18  22  8
19  23  8
20  24  8
21  25  8
22  24  8
23  25  8
3  12  8
3  16  8
4  13  8
4  17  8
8  10  8
8  16  8
9  11  8
9  17  8

$$$$
