24905153
  -OEChem-03192523292D

 43 46  0     0  0  0  0  0  0999 V2000
    7.2566    1.9924    0.0000 O   0  0  0  0  0  0  0  0  0  0  0  0
    5.9209    3.4810    0.0000 O   0  0  0  0  0  0  0  0  0  0  0  0
    4.6783   -1.9305    0.0000 N   0  0  0  0  0  0  0  0  0  0  0  0
    5.2619   -1.1258    0.0000 N   0  0  0  0  0  0  0  0  0  0  0  0
    2.8660   -2.1258    0.0000 N   0  0  0  0  0  0  0  0  0  0  0  0
    2.0000   -0.6258    0.0000 N   0  0  0  0  0  0  0  0  0  0  0  0
    2.8660    0.8742    0.0000 N   0  0  0  0  0  0  0  0  0  0  0  0
    4.9889   -2.8811    0.0000 C   0  0  0  0  0  0  0  0  0  0  0  0
    5.8807   -3.3335    0.0000 C   0  0  0  0  0  0  0  0  0  0  0  0
    4.5365   -3.7729    0.0000 C   0  0  0  0  0  0  0  0  0  0  0  0
    5.4283   -4.2253    0.0000 C   0  0  0  0  0  0  0  0  0  0  0  0
    3.7320   -1.6258    0.0000 C   0  0  0  0  0  0  0  0  0  0  0  0
    3.7320   -0.6258    0.0000 C   0  0  0  0  0  0  0  0  0  0  0  0
    4.6783   -0.3211    0.0000 C   0  0  0  0  0  0  0  0  0  0  0  0
    4.9889    0.6294    0.0000 C   0  0  0  0  0  0  0  0  0  0  0  0
    2.8660   -0.1258    0.0000 C   0  0  0  0  0  0  0  0  0  0  0  0
    2.0000   -1.6258    0.0000 C   0  0  0  0  0  0  0  0  0  0  0  0
    5.9674    0.8357    0.0000 C   0  0  0  0  0  0  0  0  0  0  0  0
    4.3211    1.3737    0.0000 C   0  0  0  0  0  0  0  0  0  0  0  0
    6.2781    1.7862    0.0000 C   0  0  0  0  0  0  0  0  0  0  0  0
    4.6318    2.3243    0.0000 C   0  0  0  0  0  0  0  0  0  0  0  0
    5.6103    2.5305    0.0000 C   0  0  0  0  0  0  0  0  0  0  0  0
    7.9244    1.2481    0.0000 C   0  0  0  0  0  0  0  0  0  0  0  0
    5.2531    4.2253    0.0000 C   0  0  0  0  0  0  0  0  0  0  0  0
    5.4597   -2.4776    0.0000 H   0  0  0  0  0  0  0  0  0  0  0  0
    6.4336   -3.6140    0.0000 H   0  0  0  0  0  0  0  0  0  0  0  0
    6.1612   -2.7806    0.0000 H   0  0  0  0  0  0  0  0  0  0  0  0
    3.9836   -3.4923    0.0000 H   0  0  0  0  0  0  0  0  0  0  0  0
    4.2560   -4.3258    0.0000 H   0  0  0  0  0  0  0  0  0  0  0  0
    5.1478   -4.7782    0.0000 H   0  0  0  0  0  0  0  0  0  0  0  0
    5.9812   -4.5058    0.0000 H   0  0  0  0  0  0  0  0  0  0  0  0
    1.4631   -1.9358    0.0000 H   0  0  0  0  0  0  0  0  0  0  0  0
    6.3815    0.3742    0.0000 H   0  0  0  0  0  0  0  0  0  0  0  0
    3.7144    1.2459    0.0000 H   0  0  0  0  0  0  0  0  0  0  0  0
    2.3291    1.1842    0.0000 H   0  0  0  0  0  0  0  0  0  0  0  0
    3.4030    1.1842    0.0000 H   0  0  0  0  0  0  0  0  0  0  0  0
    4.2177    2.7857    0.0000 H   0  0  0  0  0  0  0  0  0  0  0  0
    7.4630    0.8340    0.0000 H   0  0  0  0  0  0  0  0  0  0  0  0
    8.3385    0.7866    0.0000 H   0  0  0  0  0  0  0  0  0  0  0  0
    8.3859    1.6622    0.0000 H   0  0  0  0  0  0  0  0  0  0  0  0
    5.7145    4.6394    0.0000 H   0  0  0  0  0  0  0  0  0  0  0  0
    4.8390    4.6868    0.0000 H   0  0  0  0  0  0  0  0  0  0  0  0
    4.7916    3.8112    0.0000 H   0  0  0  0  0  0  0  0  0  0  0  0
  1 20  1  0  0  0  0
  1 23  1  0  0  0  0
  2 22  1  0  0  0  0
  2 24  1  0  0  0  0
  3  4  1  0  0  0  0
  3  8  1  0  0  0  0
  3 12  1  0  0  0  0
  4 14  2  0  0  0  0
  5 12  2  0  0  0  0
  5 17  1  0  0  0  0
  6 16  1  0  0  0  0
  6 17  2  0  0  0  0
  7 16  1  0  0  0  0
  7 35  1  0  0  0  0
  7 36  1  0  0  0  0
  8  9  1  0  0  0  0
  8 10  1  0  0  0  0
  8 25  1  0  0  0  0
  9 11  1  0  0  0  0
  9 26  1  0  0  0  0
  9 27  1  0  0  0  0
 10 11  1  0  0  0  0
 10 28  1  0  0  0  0
 10 29  1  0  0  0  0
 11 30  1  0  0  0  0
 11 31  1  0  0  0  0
 12 13  1  0  0  0  0
 13 14  1  0  0  0  0
 13 16  2  0  0  0  0
 14 15  1  0  0  0  0
 15 18  2  0  0  0  0
 15 19  1  0  0  0  0
 17 32  1  0  0  0  0
 18 20  1  0  0  0  0
 18 33  1  0  0  0  0
 19 21  2  0  0  0  0
 19 34  1  0  0  0  0
 20 22  2  0  0  0  0
 21 22  1  0  0  0  0
 21 37  1  0  0  0  0
 23 38  1  0  0  0  0
 23 39  1  0  0  0  0
 23 40  1  0  0  0  0
 24 41  1  0  0  0  0
 24 42  1  0  0  0  0
 24 43  1  0  0  0  0
M  END
> <PUBCHEM_COMPOUND_CID>
24905153

> <PUBCHEM_COMPOUND_CANONICALIZED>
1

> <PUBCHEM_CACTVS_COMPLEXITY>
435

> <PUBCHEM_CACTVS_HBOND_ACCEPTOR>
6

> <PUBCHEM_CACTVS_HBOND_DONOR>
1

> <PUBCHEM_CACTVS_ROTATABLE_BOND>
4

> <PUBCHEM_CACTVS_SUBSKEYS>
AAADceB7sAAAAAAAAAAAAAAAAABgAWAAAAA8QAAAAAAAAFgB/AAAHgAYAAAADCzBnwY3tt5IFACiAyZjZACSjCsxoKAd2CAuzJiNLqLE+duEtCpsyBPK6Cew0PEOIAABAAAAQABAAAIAAACAAAAAAAAAAA==

> <PUBCHEM_IUPAC_OPENEYE_NAME>
1-cyclobutyl-3-(3,4-dimethoxyphenyl)pyrazolo[3,4-d]pyrimidin-4-amine

> <PUBCHEM_IUPAC_CAS_NAME>
1-cyclobutyl-3-(3,4-dimethoxyphenyl)-4-pyrazolo[3,4-d]pyrimidinamine

> <PUBCHEM_IUPAC_NAME_MARKUP>
1-cyclobutyl-3-(3,4-dimethoxyphenyl)pyrazolo[3,4-d]pyrimidin-4-amine

> <PUBCHEM_IUPAC_NAME>
1-cyclobutyl-3-(3,4-dimethoxyphenyl)pyrazolo[3,4-d]pyrimidin-4-amine

> <PUBCHEM_IUPAC_SYSTEMATIC_NAME>
1-cyclobutyl-3-(3,4-dimethoxyphenyl)pyrazolo[3,4-d]pyrimidin-4-amine

> <PUBCHEM_IUPAC_TRADITIONAL_NAME>
[1-cyclobutyl-3-(3,4-dimethoxyphenyl)pyrazolo[3,4-d]pyrimidin-4-yl]amine

> <PUBCHEM_IUPAC_INCHI>
InChI=1S/C17H19N5O2/c1-23-12-7-6-10(8-13(12)24-2)15-14-16(18)19-9-20-17(14)22(21-15)11-4-3-5-11/h6-9,11H,3-5H2,1-2H3,(H2,18,19,20)

> <PUBCHEM_IUPAC_INCHIKEY>
ITOYZJGFTNTKKR-UHFFFAOYSA-N

> <PUBCHEM_XLOGP3_AA>
2.3

> <PUBCHEM_EXACT_MASS>
325.15387487

> <PUBCHEM_MOLECULAR_FORMULA>
C17H19N5O2

> <PUBCHEM_MOLECULAR_WEIGHT>
325.4

> <PUBCHEM_SMILES>
COC1=C(C=C(C=C1)C2=NN(C3=NC=NC(=C23)N)C4CCC4)OC

> <PUBCHEM_OPENEYE_CAN_SMILES>
COC1=C(C=C(C=C1)C2=NN(C3=NC=NC(=C23)N)C4CCC4)OC

> <PUBCHEM_OPENEYE_ISO_SMILES>
COC1=C(C=C(C=C1)C2=NN(C3=NC=NC(=C23)N)C4CCC4)OC

> <PUBCHEM_CACTVS_TPSA>
88.1

> <PUBCHEM_MONOISOTOPIC_WEIGHT>
325.15387487

> <PUBCHEM_TOTAL_CHARGE>
0

> <PUBCHEM_HEAVY_ATOM_COUNT>
24

> <PUBCHEM_ATOM_DEF_STEREO_COUNT>
0

> <PUBCHEM_ATOM_UDEF_STEREO_COUNT>
0

> <PUBCHEM_BOND_DEF_STEREO_COUNT>
0

> <PUBCHEM_BOND_UDEF_STEREO_COUNT>
0

> <PUBCHEM_ISOTOPIC_ATOM_COUNT>
0

> <PUBCHEM_COMPONENT_COUNT>
1

> <PUBCHEM_CACTVS_TAUTO_COUNT>
-1

> <PUBCHEM_COORDINATE_TYPE>
1
5
255

> <PUBCHEM_BONDANNOTATIONS>
12  13  8
13  14  8
13  16  8
15  18  8
15  19  8
18  20  8
19  21  8
20  22  8
21  22  8
3  12  8
3  4  8
4  14  8
5  12  8
5  17  8
6  16  8
6  17  8

$$$$
