71452977
  -OEChem-03202504472D

 81 84  0     0  0  0  0  0  0999 V2000
    1.7320    5.6200    0.0000 Cl  0  0  0  0  0  0  0  0  0  0  0  0
    0.0000    0.6200    0.0000 Cl  0  0  0  0  0  0  0  0  0  0  0  0
   10.2081    2.6008    0.0000 S   0  0  0  0  0  0  0  0  0  0  0  0
    5.7186   15.6331    0.0000 S   0  0  0  0  0  0  0  0  0  0  0  0
   11.1586    2.9114    0.0000 O   0  0  0  0  0  0  0  0  0  0  0  0
    9.2575    2.2901    0.0000 O   0  0  0  0  0  0  0  0  0  0  0  0
   10.2546    5.2461    0.0000 O   0  0  0  0  0  0  0  0  0  0  0  0
    1.7320    3.6200    0.0000 O   0  0  0  0  0  0  0  0  0  0  0  0
    5.7186   16.6331    0.0000 O   0  0  0  0  0  0  0  0  0  0  0  0
    6.7186   15.6331    0.0000 O   0  0  0  0  0  0  0  0  0  0  0  0
    4.7186   15.6331    0.0000 O   0  0  0  0  0  0  0  0  0  0  0  0
    8.6082    4.7080    0.0000 N   0  0  0  0  0  0  0  0  0  0  0  0
    7.0084    6.8153    0.0000 N   0  0  0  0  0  0  0  0  0  0  0  0
    5.1962    5.6200    0.0000 N   0  0  0  0  0  0  0  0  0  0  0  0
    5.1962    8.6200    0.0000 N   0  0  0  0  0  0  0  0  0  0  0  0
    4.3301    7.1200    0.0000 N   0  0  0  0  0  0  0  0  0  0  0  0
    9.8974    3.5513    0.0000 C   0  0  0  0  0  0  0  0  0  0  0  0
    9.5867    4.5018    0.0000 C   0  0  0  0  0  0  0  0  0  0  0  0
   10.8479    3.8619    0.0000 C   0  0  0  0  0  0  0  0  0  0  0  0
    8.9469    3.2406    0.0000 C   0  0  0  0  0  0  0  0  0  0  0  0
    8.2976    5.6585    0.0000 C   0  0  0  0  0  0  0  0  0  0  0  0
    7.3191    5.8648    0.0000 C   0  0  0  0  0  0  0  0  0  0  0  0
   10.5187    1.6502    0.0000 C   0  0  0  0  0  0  0  0  0  0  0  0
    6.0622    7.1200    0.0000 C   0  0  0  0  0  0  0  0  0  0  0  0
    7.5920    7.6200    0.0000 C   0  0  0  0  0  0  0  0  0  0  0  0
    6.0622    8.1200    0.0000 C   0  0  0  0  0  0  0  0  0  0  0  0
    7.0084    8.4247    0.0000 C   0  0  0  0  0  0  0  0  0  0  0  0
    5.1962    6.6200    0.0000 C   0  0  0  0  0  0  0  0  0  0  0  0
    4.3301    8.1200    0.0000 C   0  0  0  0  0  0  0  0  0  0  0  0
    4.3301    5.1200    0.0000 C   0  0  0  0  0  0  0  0  0  0  0  0
    3.4641    5.6200    0.0000 C   0  0  0  0  0  0  0  0  0  0  0  0
    4.3301    4.1200    0.0000 C   0  0  0  0  0  0  0  0  0  0  0  0
    2.5981    5.1200    0.0000 C   0  0  0  0  0  0  0  0  0  0  0  0
    3.4641    3.6200    0.0000 C   0  0  0  0  0  0  0  0  0  0  0  0
    2.5981    4.1200    0.0000 C   0  0  0  0  0  0  0  0  0  0  0  0
    1.7320    2.6200    0.0000 C   0  0  0  0  0  0  0  0  0  0  0  0
    5.7186   14.6331    0.0000 C   0  0  0  0  0  0  0  0  0  0  0  0
    0.8660    2.1200    0.0000 C   0  0  0  0  0  0  0  0  0  0  0  0
    2.5981    2.1200    0.0000 C   0  0  0  0  0  0  0  0  0  0  0  0
    5.7186   12.6331    0.0000 C   0  0  0  0  0  0  0  0  0  0  0  0
    4.8526   14.1331    0.0000 C   0  0  0  0  0  0  0  0  0  0  0  0
    6.5846   14.1331    0.0000 C   0  0  0  0  0  0  0  0  0  0  0  0
    4.8526   13.1331    0.0000 C   0  0  0  0  0  0  0  0  0  0  0  0
    6.5846   13.1331    0.0000 C   0  0  0  0  0  0  0  0  0  0  0  0
    0.8660    1.1200    0.0000 C   0  0  0  0  0  0  0  0  0  0  0  0
    2.5981    1.1200    0.0000 C   0  0  0  0  0  0  0  0  0  0  0  0
    5.7186   11.6331    0.0000 C   0  0  0  0  0  0  0  0  0  0  0  0
    1.7320    0.6200    0.0000 C   0  0  0  0  0  0  0  0  0  0  0  0
   11.0405    3.2726    0.0000 H   0  0  0  0  0  0  0  0  0  0  0  0
   11.4372    4.0545    0.0000 H   0  0  0  0  0  0  0  0  0  0  0  0
   10.6553    4.4512    0.0000 H   0  0  0  0  0  0  0  0  0  0  0  0
    8.7543    3.8299    0.0000 H   0  0  0  0  0  0  0  0  0  0  0  0
    8.3576    3.0480    0.0000 H   0  0  0  0  0  0  0  0  0  0  0  0
    9.1395    2.6513    0.0000 H   0  0  0  0  0  0  0  0  0  0  0  0
    8.9114    5.7459    0.0000 H   0  0  0  0  0  0  0  0  0  0  0  0
    8.3181    6.2782    0.0000 H   0  0  0  0  0  0  0  0  0  0  0  0
    8.1942    4.2465    0.0000 H   0  0  0  0  0  0  0  0  0  0  0  0
    6.7052    5.7774    0.0000 H   0  0  0  0  0  0  0  0  0  0  0  0
    7.2985    5.2451    0.0000 H   0  0  0  0  0  0  0  0  0  0  0  0
    9.9294    1.4576    0.0000 H   0  0  0  0  0  0  0  0  0  0  0  0
   10.7113    1.0609    0.0000 H   0  0  0  0  0  0  0  0  0  0  0  0
   11.1080    1.8428    0.0000 H   0  0  0  0  0  0  0  0  0  0  0  0
    8.2120    7.6200    0.0000 H   0  0  0  0  0  0  0  0  0  0  0  0
    7.2010    9.0141    0.0000 H   0  0  0  0  0  0  0  0  0  0  0  0
    5.7331    5.3100    0.0000 H   0  0  0  0  0  0  0  0  0  0  0  0
    3.7932    8.4300    0.0000 H   0  0  0  0  0  0  0  0  0  0  0  0
    3.4641    6.2400    0.0000 H   0  0  0  0  0  0  0  0  0  0  0  0
    4.8671    3.8100    0.0000 H   0  0  0  0  0  0  0  0  0  0  0  0
    3.4641    3.0000    0.0000 H   0  0  0  0  0  0  0  0  0  0  0  0
    0.3291    2.4300    0.0000 H   0  0  0  0  0  0  0  0  0  0  0  0
    3.1350    2.4300    0.0000 H   0  0  0  0  0  0  0  0  0  0  0  0
    4.3157   14.4431    0.0000 H   0  0  0  0  0  0  0  0  0  0  0  0
    7.1216   14.4431    0.0000 H   0  0  0  0  0  0  0  0  0  0  0  0
    4.3157   12.8231    0.0000 H   0  0  0  0  0  0  0  0  0  0  0  0
    7.1216   12.8231    0.0000 H   0  0  0  0  0  0  0  0  0  0  0  0
    5.0986   11.6331    0.0000 H   0  0  0  0  0  0  0  0  0  0  0  0
    5.7186   11.0131    0.0000 H   0  0  0  0  0  0  0  0  0  0  0  0
    6.3386   11.6331    0.0000 H   0  0  0  0  0  0  0  0  0  0  0  0
    3.1350    0.8100    0.0000 H   0  0  0  0  0  0  0  0  0  0  0  0
    1.7320    0.0000    0.0000 H   0  0  0  0  0  0  0  0  0  0  0  0
    6.2556   16.9431    0.0000 H   0  0  0  0  0  0  0  0  0  0  0  0
  1 33  1  0  0  0  0
  2 45  1  0  0  0  0
  3  5  2  0  0  0  0
  3  6  2  0  0  0  0
  3 17  1  0  0  0  0
  3 23  1  0  0  0  0
  4  9  1  0  0  0  0
  4 10  2  0  0  0  0
  4 11  2  0  0  0  0
  4 37  1  0  0  0  0
  7 18  2  0  0  0  0
  8 35  1  0  0  0  0
  8 36  1  0  0  0  0
  9 81  1  0  0  0  0
 12 18  1  0  0  0  0
 12 21  1  0  0  0  0
 12 57  1  0  0  0  0
 13 22  1  0  0  0  0
 13 24  1  0  0  0  0
 13 25  1  0  0  0  0
 14 28  1  0  0  0  0
 14 30  1  0  0  0  0
 14 65  1  0  0  0  0
 15 26  1  0  0  0  0
 15 29  2  0  0  0  0
 16 28  2  0  0  0  0
 16 29  1  0  0  0  0
 17 18  1  0  0  0  0
 17 19  1  0  0  0  0
 17 20  1  0  0  0  0
 19 49  1  0  0  0  0
 19 50  1  0  0  0  0
 19 51  1  0  0  0  0
 20 52  1  0  0  0  0
 20 53  1  0  0  0  0
 20 54  1  0  0  0  0
 21 22  1  0  0  0  0
 21 55  1  0  0  0  0
 21 56  1  0  0  0  0
 22 58  1  0  0  0  0
 22 59  1  0  0  0  0
 23 60  1  0  0  0  0
 23 61  1  0  0  0  0
 23 62  1  0  0  0  0
 24 26  2  0  0  0  0
 24 28  1  0  0  0  0
 25 27  2  0  0  0  0
 25 63  1  0  0  0  0
 26 27  1  0  0  0  0
 27 64  1  0  0  0  0
 29 66  1  0  0  0  0
 30 31  2  0  0  0  0
 30 32  1  0  0  0  0
 31 33  1  0  0  0  0
 31 67  1  0  0  0  0
 32 34  2  0  0  0  0
 32 68  1  0  0  0  0
 33 35  2  0  0  0  0
 34 35  1  0  0  0  0
 34 69  1  0  0  0  0
 36 38  2  0  0  0  0
 36 39  1  0  0  0  0
 37 41  2  0  0  0  0
 37 42  1  0  0  0  0
 38 45  1  0  0  0  0
 38 70  1  0  0  0  0
 39 46  2  0  0  0  0
 39 71  1  0  0  0  0
 40 43  2  0  0  0  0
 40 44  1  0  0  0  0
 40 47  1  0  0  0  0
 41 43  1  0  0  0  0
 41 72  1  0  0  0  0
 42 44  2  0  0  0  0
 42 73  1  0  0  0  0
 43 74  1  0  0  0  0
 44 75  1  0  0  0  0
 45 48  2  0  0  0  0
 46 48  1  0  0  0  0
 46 79  1  0  0  0  0
 47 76  1  0  0  0  0
 47 77  1  0  0  0  0
 47 78  1  0  0  0  0
 48 80  1  0  0  0  0
M  END
> <PUBCHEM_COMPOUND_CID>
71452977

> <PUBCHEM_COMPOUND_CANONICALIZED>
1

> <PUBCHEM_CACTVS_COMPLEXITY>
1100

> <PUBCHEM_CACTVS_HBOND_ACCEPTOR>
10

> <PUBCHEM_CACTVS_HBOND_DONOR>
3

> <PUBCHEM_CACTVS_ROTATABLE_BOND>
10

> <PUBCHEM_CACTVS_SUBSKEYS>
AAADcfB/uABmAAAAAAAAAAAAAAAAAWAAAAA8YMEAAAAAAFgB/AAAHgYQCAAADA7B3iS/97fMFIqoAzd3dHDCiG0xN/AJ2Lk+f5iMbuPF+9uWPCjs1hPI6CewwAAOEEAAAQIACAAggAACBAAQAAAAAAAAAA==

> <PUBCHEM_IUPAC_OPENEYE_NAME>
N-[2-[4-[3-chloro-4-(3-chlorophenoxy)anilino]pyrrolo[3,2-d]pyrimidin-5-yl]ethyl]-2-methyl-2-methylsulfonyl-propanamide;4-methylbenzenesulfonic acid

> <PUBCHEM_IUPAC_CAS_NAME>
N-[2-[4-[3-chloro-4-(3-chlorophenoxy)anilino]-5-pyrrolo[3,2-d]pyrimidinyl]ethyl]-2-methyl-2-methylsulfonylpropanamide;4-methylbenzenesulfonic acid

> <PUBCHEM_IUPAC_NAME_MARKUP>
<I>N</I>-[2-[4-[3-chloro-4-(3-chlorophenoxy)anilino]pyrrolo[3,2-d]pyrimidin-5-yl]ethyl]-2-methyl-2-methylsulfonylpropanamide;4-methylbenzenesulfonic acid

> <PUBCHEM_IUPAC_NAME>
N-[2-[4-[3-chloro-4-(3-chlorophenoxy)anilino]pyrrolo[3,2-d]pyrimidin-5-yl]ethyl]-2-methyl-2-methylsulfonylpropanamide;4-methylbenzenesulfonic acid

> <PUBCHEM_IUPAC_SYSTEMATIC_NAME>
N-[2-[4-[[3-chloranyl-4-(3-chloranylphenoxy)phenyl]amino]pyrrolo[3,2-d]pyrimidin-5-yl]ethyl]-2-methyl-2-methylsulfonyl-propanamide;4-methylbenzenesulfonic acid

> <PUBCHEM_IUPAC_TRADITIONAL_NAME>
N-[2-[4-[3-chloro-4-(3-chlorophenoxy)anilino]pyrrolo[3,2-d]pyrimidin-5-yl]ethyl]-2-mesyl-2-methyl-propionamide;tosylic acid

> <PUBCHEM_IUPAC_INCHI>
InChI=1S/C25H25Cl2N5O4S.C7H8O3S/c1-25(2,37(3,34)35)24(33)28-10-12-32-11-9-20-22(32)23(30-15-29-20)31-17-7-8-21(19(27)14-17)36-18-6-4-5-16(26)13-18;1-6-2-4-7(5-3-6)11(8,9)10/h4-9,11,13-15H,10,12H2,1-3H3,(H,28,33)(H,29,30,31);2-5H,1H3,(H,8,9,10)

> <PUBCHEM_IUPAC_INCHIKEY>
DKBQZUJQVFVBMF-UHFFFAOYSA-N

> <PUBCHEM_EXACT_MASS>
733.1198461

> <PUBCHEM_MOLECULAR_FORMULA>
C32H33Cl2N5O7S2

> <PUBCHEM_MOLECULAR_WEIGHT>
734.7

> <PUBCHEM_SMILES>
CC1=CC=C(C=C1)S(=O)(=O)O.CC(C)(C(=O)NCCN1C=CC2=C1C(=NC=N2)NC3=CC(=C(C=C3)OC4=CC(=CC=C4)Cl)Cl)S(=O)(=O)C

> <PUBCHEM_OPENEYE_CAN_SMILES>
CC1=CC=C(C=C1)S(=O)(=O)O.CC(C)(C(=O)NCCN1C=CC2=C1C(=NC=N2)NC3=CC(=C(C=C3)OC4=CC(=CC=C4)Cl)Cl)S(=O)(=O)C

> <PUBCHEM_OPENEYE_ISO_SMILES>
CC1=CC=C(C=C1)S(=O)(=O)O.CC(C)(C(=O)NCCN1C=CC2=C1C(=NC=N2)NC3=CC(=C(C=C3)OC4=CC(=CC=C4)Cl)Cl)S(=O)(=O)C

> <PUBCHEM_CACTVS_TPSA>
186

> <PUBCHEM_MONOISOTOPIC_WEIGHT>
733.1198461

> <PUBCHEM_TOTAL_CHARGE>
0

> <PUBCHEM_HEAVY_ATOM_COUNT>
48

> <PUBCHEM_ATOM_DEF_STEREO_COUNT>
0

> <PUBCHEM_ATOM_UDEF_STEREO_COUNT>
0

> <PUBCHEM_BOND_DEF_STEREO_COUNT>
0

> <PUBCHEM_BOND_UDEF_STEREO_COUNT>
0

> <PUBCHEM_ISOTOPIC_ATOM_COUNT>
0

> <PUBCHEM_COMPONENT_COUNT>
2

> <PUBCHEM_CACTVS_TAUTO_COUNT>
-1

> <PUBCHEM_COORDINATE_TYPE>
1
5
255

> <PUBCHEM_BONDANNOTATIONS>
13  24  8
13  25  8
15  26  8
15  29  8
16  28  8
16  29  8
24  26  8
24  28  8
25  27  8
26  27  8
30  31  8
30  32  8
31  33  8
32  34  8
33  35  8
34  35  8
36  38  8
36  39  8
37  41  8
37  42  8
38  45  8
39  46  8
40  43  8
40  44  8
41  43  8
42  44  8
45  48  8
46  48  8

$$$$
