135993697
  -OEChem-03202501022D

 23 25  0     0  0  0  0  0  0999 V2000
    5.1186    0.7807    0.0000 S   0  0  0  0  0  0  0  0  0  0  0  0
    3.7536    2.5128    0.0000 O   0  0  0  0  0  0  0  0  0  0  0  0
    6.2303   -0.7568    0.0000 N   0  0  0  0  0  0  0  0  0  0  0  0
    5.9223   -1.7019    0.0000 N   0  0  0  0  0  0  0  0  0  0  0  0
    2.7941   -0.4026    0.0000 N   0  0  0  0  0  0  0  0  0  0  0  0
    2.4131    1.3567    0.0000 N   0  0  0  0  0  0  0  0  0  0  0  0
    4.6186   -0.7582    0.0000 C   0  0  0  0  0  0  0  0  0  0  0  0
    5.4276   -0.1704    0.0000 C   0  0  0  0  0  0  0  0  0  0  0  0
    3.8095   -0.1704    0.0000 C   0  0  0  0  0  0  0  0  0  0  0  0
    4.9282   -1.7028    0.0000 C   0  0  0  0  0  0  0  0  0  0  0  0
    4.1186    0.7807    0.0000 C   0  0  0  0  0  0  0  0  0  0  0  0
    4.3418   -2.5128    0.0000 C   0  0  0  0  0  0  0  0  0  0  0  0
    3.4336    1.5654    0.0000 C   0  0  0  0  0  0  0  0  0  0  0  0
    7.1819   -0.4494    0.0000 C   0  0  0  0  0  0  0  0  0  0  0  0
    2.0912    0.3661    0.0000 C   0  0  0  0  0  0  0  0  0  0  0  0
    3.8396   -2.1493    0.0000 H   0  0  0  0  0  0  0  0  0  0  0  0
    3.9783   -3.0150    0.0000 H   0  0  0  0  0  0  0  0  0  0  0  0
    4.8440   -2.8764    0.0000 H   0  0  0  0  0  0  0  0  0  0  0  0
    7.3724   -1.0394    0.0000 H   0  0  0  0  0  0  0  0  0  0  0  0
    7.7719   -0.2588    0.0000 H   0  0  0  0  0  0  0  0  0  0  0  0
    6.9913    0.1406    0.0000 H   0  0  0  0  0  0  0  0  0  0  0  0
    2.0000    1.8190    0.0000 H   0  0  0  0  0  0  0  0  0  0  0  0
    1.4852    0.2348    0.0000 H   0  0  0  0  0  0  0  0  0  0  0  0
  1  8  1  0  0  0  0
  1 11  1  0  0  0  0
  2 13  2  0  0  0  0
  3  4  1  0  0  0  0
  3  8  1  0  0  0  0
  3 14  1  0  0  0  0
  4 10  2  0  0  0  0
  5  9  1  0  0  0  0
  5 15  2  0  0  0  0
  6 13  1  0  0  0  0
  6 15  1  0  0  0  0
  6 22  1  0  0  0  0
  7  8  2  0  0  0  0
  7  9  1  0  0  0  0
  7 10  1  0  0  0  0
  9 11  2  0  0  0  0
 10 12  1  0  0  0  0
 11 13  1  0  0  0  0
 12 16  1  0  0  0  0
 12 17  1  0  0  0  0
 12 18  1  0  0  0  0
 14 19  1  0  0  0  0
 14 20  1  0  0  0  0
 14 21  1  0  0  0  0
 15 23  1  0  0  0  0
M  END
> <PUBCHEM_COMPOUND_CID>
135993697

> <PUBCHEM_COMPOUND_CANONICALIZED>
1

> <PUBCHEM_CACTVS_COMPLEXITY>
334

> <PUBCHEM_CACTVS_HBOND_ACCEPTOR>
4

> <PUBCHEM_CACTVS_HBOND_DONOR>
1

> <PUBCHEM_CACTVS_ROTATABLE_BOND>
0

> <PUBCHEM_CACTVS_SUBSKEYS>
AAADccBzoABAAAAAAAAAAAAAAAAAAWJAAAAgAAAAAAAWAEAB+AAAHgQYAAAADAiB3gQDwdLIAAiuAwVxdACTFIFliBgR2LU4RNgIIDrg3NGEhYxgigBoyUcYCQAeAAAAAAAAAAAAAAAAAAAAAAAAAAAAAA==

> <PUBCHEM_IUPAC_OPENEYE_NAME>
3,5-dimethyl-7-thia-4,5,10,12-tetrazatricyclo[6.4.0.02,6]dodeca-1(8),2(6),3,11-tetraen-9-one

> <PUBCHEM_IUPAC_CAS_NAME>
3,5-dimethyl-7-thia-4,5,10,12-tetrazatricyclo[6.4.0.02,6]dodeca-1(8),2(6),3,11-tetraen-9-one

> <PUBCHEM_IUPAC_NAME_MARKUP>
3,5-dimethyl-7-thia-4,5,10,12-tetrazatricyclo[6.4.0.0<SUP>2,6</SUP>]dodeca-1(8),2(6),3,11-tetraen-9-one

> <PUBCHEM_IUPAC_NAME>
3,5-dimethyl-7-thia-4,5,10,12-tetrazatricyclo[6.4.0.02,6]dodeca-1(8),2(6),3,11-tetraen-9-one

> <PUBCHEM_IUPAC_SYSTEMATIC_NAME>
3,5-dimethyl-7-thia-4,5,10,12-tetrazatricyclo[6.4.0.02,6]dodeca-1(8),2(6),3,11-tetraen-9-one

> <PUBCHEM_IUPAC_TRADITIONAL_NAME>
3,5-dimethyl-7-thia-4,5,10,12-tetrazatricyclo[6.4.0.02,6]dodeca-1(8),2(6),3,11-tetraen-9-one

> <PUBCHEM_IUPAC_INCHI>
InChI=1S/C9H8N4OS/c1-4-5-6-7(8(14)11-3-10-6)15-9(5)13(2)12-4/h3H,1-2H3,(H,10,11,14)

> <PUBCHEM_IUPAC_INCHIKEY>
YCVWBBWJVCFSQB-UHFFFAOYSA-N

> <PUBCHEM_XLOGP3_AA>
1.1

> <PUBCHEM_EXACT_MASS>
220.04188206

> <PUBCHEM_MOLECULAR_FORMULA>
C9H8N4OS

> <PUBCHEM_MOLECULAR_WEIGHT>
220.25

> <PUBCHEM_SMILES>
CC1=NN(C2=C1C3=C(S2)C(=O)NC=N3)C

> <PUBCHEM_OPENEYE_CAN_SMILES>
CC1=NN(C2=C1C3=C(S2)C(=O)NC=N3)C

> <PUBCHEM_OPENEYE_ISO_SMILES>
CC1=NN(C2=C1C3=C(S2)C(=O)NC=N3)C

> <PUBCHEM_CACTVS_TPSA>
87.5

> <PUBCHEM_MONOISOTOPIC_WEIGHT>
220.04188206

> <PUBCHEM_TOTAL_CHARGE>
0

> <PUBCHEM_HEAVY_ATOM_COUNT>
15

> <PUBCHEM_ATOM_DEF_STEREO_COUNT>
0

> <PUBCHEM_ATOM_UDEF_STEREO_COUNT>
0

> <PUBCHEM_BOND_DEF_STEREO_COUNT>
0

> <PUBCHEM_BOND_UDEF_STEREO_COUNT>
0

> <PUBCHEM_ISOTOPIC_ATOM_COUNT>
0

> <PUBCHEM_COMPONENT_COUNT>
1

> <PUBCHEM_CACTVS_TAUTO_COUNT>
-1

> <PUBCHEM_COORDINATE_TYPE>
1
5
255

> <PUBCHEM_BONDANNOTATIONS>
1  11  8
1  8  8
11  13  8
3  4  8
3  8  8
4  10  8
5  15  8
5  9  8
6  13  8
6  15  8
7  10  8
7  8  8
7  9  8
9  11  8

$$$$
