24766030
  -OEChem-03202506332D

 52 56  0     0  0  0  0  0  0999 V2000
    7.7540   -1.6848    0.0000 S   0  0  0  0  0  0  0  0  0  0  0  0
   11.3376   -0.8801    0.0000 O   0  0  0  0  0  0  0  0  0  0  0  0
   11.3376   -2.6121    0.0000 N   0  0  0  0  0  0  0  0  0  0  0  0
    5.9418    1.1199    0.0000 N   0  0  0  0  0  0  0  0  0  0  0  0
    2.6067    3.2870    0.0000 N   0  0  0  0  0  0  0  0  0  0  0  0
    5.9418   -1.8801    0.0000 N   0  0  0  0  0  0  0  0  0  0  0  0
    3.3437    0.6199    0.0000 N   0  0  0  0  0  0  0  0  0  0  0  0
   11.6740   -4.1948    0.0000 C   0  0  0  0  0  0  0  0  0  0  0  0
   12.5401   -3.6948    0.0000 C   0  0  0  0  0  0  0  0  0  0  0  0
   10.9309   -3.5257    0.0000 C   0  0  0  0  0  0  0  0  0  0  0  0
   12.3321   -2.7166    0.0000 C   0  0  0  0  0  0  0  0  0  0  0  0
   10.8376   -1.7461    0.0000 C   0  0  0  0  0  0  0  0  0  0  0  0
    9.8376   -1.7461    0.0000 C   0  0  0  0  0  0  0  0  0  0  0  0
    5.0757    2.6199    0.0000 C   0  0  0  0  0  0  0  0  0  0  0  0
    4.2097    3.1199    0.0000 C   0  0  0  0  0  0  0  0  0  0  0  0
    5.0757    1.6199    0.0000 C   0  0  0  0  0  0  0  0  0  0  0  0
    3.3437    2.6199    0.0000 C   0  0  0  0  0  0  0  0  0  0  0  0
    6.8078   -0.3801    0.0000 C   0  0  0  0  0  0  0  0  0  0  0  0
    5.9418    0.1199    0.0000 C   0  0  0  0  0  0  0  0  0  0  0  0
    9.3376   -0.8801    0.0000 C   0  0  0  0  0  0  0  0  0  0  0  0
    8.3376   -0.8801    0.0000 C   0  0  0  0  0  0  0  0  0  0  0  0
    4.2097    1.1199    0.0000 C   0  0  0  0  0  0  0  0  0  0  0  0
    7.7540   -0.0753    0.0000 C   0  0  0  0  0  0  0  0  0  0  0  0
    3.3437    1.6199    0.0000 C   0  0  0  0  0  0  0  0  0  0  0  0
    6.8078   -1.3801    0.0000 C   0  0  0  0  0  0  0  0  0  0  0  0
    4.0005    4.0917    0.0000 C   0  0  0  0  0  0  0  0  0  0  0  0
    5.9418    3.1199    0.0000 C   0  0  0  0  0  0  0  0  0  0  0  0
    5.0757   -0.3801    0.0000 C   0  0  0  0  0  0  0  0  0  0  0  0
    3.0118    4.1948    0.0000 C   0  0  0  0  0  0  0  0  0  0  0  0
    5.0757   -1.3801    0.0000 C   0  0  0  0  0  0  0  0  0  0  0  0
    4.2097    0.1199    0.0000 C   0  0  0  0  0  0  0  0  0  0  0  0
   11.2133   -4.6097    0.0000 H   0  0  0  0  0  0  0  0  0  0  0  0
   12.0385   -4.6964    0.0000 H   0  0  0  0  0  0  0  0  0  0  0  0
   12.7922   -4.2612    0.0000 H   0  0  0  0  0  0  0  0  0  0  0  0
   13.1297   -3.5032    0.0000 H   0  0  0  0  0  0  0  0  0  0  0  0
   10.3939   -3.2157    0.0000 H   0  0  0  0  0  0  0  0  0  0  0  0
   10.5665   -4.0273    0.0000 H   0  0  0  0  0  0  0  0  0  0  0  0
   12.9487   -2.6518    0.0000 H   0  0  0  0  0  0  0  0  0  0  0  0
   12.3321   -2.0966    0.0000 H   0  0  0  0  0  0  0  0  0  0  0  0
    9.5276   -2.2830    0.0000 H   0  0  0  0  0  0  0  0  0  0  0  0
    6.4787    1.4299    0.0000 H   0  0  0  0  0  0  0  0  0  0  0  0
    9.6476   -0.3431    0.0000 H   0  0  0  0  0  0  0  0  0  0  0  0
    4.2097    0.4999    0.0000 H   0  0  0  0  0  0  0  0  0  0  0  0
    7.9466    0.5140    0.0000 H   0  0  0  0  0  0  0  0  0  0  0  0
    2.8068    1.3099    0.0000 H   0  0  0  0  0  0  0  0  0  0  0  0
    4.4146    4.5532    0.0000 H   0  0  0  0  0  0  0  0  0  0  0  0
    2.0000    3.1592    0.0000 H   0  0  0  0  0  0  0  0  0  0  0  0
    6.2518    2.5830    0.0000 H   0  0  0  0  0  0  0  0  0  0  0  0
    6.4787    3.4299    0.0000 H   0  0  0  0  0  0  0  0  0  0  0  0
    5.6318    3.6569    0.0000 H   0  0  0  0  0  0  0  0  0  0  0  0
    2.7018    4.7317    0.0000 H   0  0  0  0  0  0  0  0  0  0  0  0
    4.5388   -1.6901    0.0000 H   0  0  0  0  0  0  0  0  0  0  0  0
  1 21  1  0  0  0  0
  1 25  1  0  0  0  0
  2 12  2  0  0  0  0
  3 10  1  0  0  0  0
  3 11  1  0  0  0  0
  3 12  1  0  0  0  0
  4 16  1  0  0  0  0
  4 19  1  0  0  0  0
  4 41  1  0  0  0  0
  5 17  1  0  0  0  0
  5 29  1  0  0  0  0
  5 47  1  0  0  0  0
  6 25  2  0  0  0  0
  6 30  1  0  0  0  0
  7 31  3  0  0  0  0
  8  9  1  0  0  0  0
  8 10  1  0  0  0  0
  8 32  1  0  0  0  0
  8 33  1  0  0  0  0
  9 11  1  0  0  0  0
  9 34  1  0  0  0  0
  9 35  1  0  0  0  0
 10 36  1  0  0  0  0
 10 37  1  0  0  0  0
 11 38  1  0  0  0  0
 11 39  1  0  0  0  0
 12 13  1  0  0  0  0
 13 20  2  0  0  0  0
 13 40  1  0  0  0  0
 14 15  1  0  0  0  0
 14 16  2  0  0  0  0
 14 27  1  0  0  0  0
 15 17  2  0  0  0  0
 15 26  1  0  0  0  0
 16 22  1  0  0  0  0
 17 24  1  0  0  0  0
 18 19  2  0  0  0  0
 18 23  1  0  0  0  0
 18 25  1  0  0  0  0
 19 28  1  0  0  0  0
 20 21  1  0  0  0  0
 20 42  1  0  0  0  0
 21 23  2  0  0  0  0
 22 24  2  0  0  0  0
 22 43  1  0  0  0  0
 23 44  1  0  0  0  0
 24 45  1  0  0  0  0
 26 29  2  0  0  0  0
 26 46  1  0  0  0  0
 27 48  1  0  0  0  0
 27 49  1  0  0  0  0
 27 50  1  0  0  0  0
 28 30  2  0  0  0  0
 28 31  1  0  0  0  0
 29 51  1  0  0  0  0
 30 52  1  0  0  0  0
M  END
> <PUBCHEM_COMPOUND_CID>
24766030

> <PUBCHEM_COMPOUND_CANONICALIZED>
1

> <PUBCHEM_CACTVS_COMPLEXITY>
743

> <PUBCHEM_CACTVS_HBOND_ACCEPTOR>
5

> <PUBCHEM_CACTVS_HBOND_DONOR>
2

> <PUBCHEM_CACTVS_ROTATABLE_BOND>
4

> <PUBCHEM_CACTVS_SUBSKEYS>
AAADceB7oABAAAAAAAAAAAAAAAAAAWLEgAA8QAAAAAAAAFgB/gAAHgQQAAAADAjB3gQ+wfPJkAi8BzV3VACj0KBxCjhI2bg4ZNgIoOLg0dGEJAxglgDoyY8QgMAOgACAQAASAAAAAQCAACQAAAAAAAAAAA==

> <PUBCHEM_IUPAC_OPENEYE_NAME>
4-[(4-methyl-1H-indol-5-yl)amino]-2-[(E)-3-oxo-3-pyrrolidin-1-yl-prop-1-enyl]thieno[2,3-b]pyridine-5-carbonitrile

> <PUBCHEM_IUPAC_CAS_NAME>
4-[(4-methyl-1H-indol-5-yl)amino]-2-[(E)-3-oxo-3-(1-pyrrolidinyl)prop-1-enyl]-5-thieno[2,3-b]pyridinecarbonitrile

> <PUBCHEM_IUPAC_NAME_MARKUP>
4-[(4-methyl-1<I>H</I>-indol-5-yl)amino]-2-[(<I>E</I>)-3-oxo-3-pyrrolidin-1-ylprop-1-enyl]thieno[2,3-b]pyridine-5-carbonitrile

> <PUBCHEM_IUPAC_NAME>
4-[(4-methyl-1H-indol-5-yl)amino]-2-[(E)-3-oxo-3-pyrrolidin-1-ylprop-1-enyl]thieno[2,3-b]pyridine-5-carbonitrile

> <PUBCHEM_IUPAC_SYSTEMATIC_NAME>
4-[(4-methyl-1H-indol-5-yl)amino]-2-[(E)-3-oxidanylidene-3-pyrrolidin-1-yl-prop-1-enyl]thieno[2,3-b]pyridine-5-carbonitrile

> <PUBCHEM_IUPAC_TRADITIONAL_NAME>
2-[(E)-3-keto-3-pyrrolidino-prop-1-enyl]-4-[(4-methyl-1H-indol-5-yl)amino]thieno[2,3-b]pyridine-5-carbonitrile

> <PUBCHEM_IUPAC_INCHI>
InChI=1S/C24H21N5OS/c1-15-18-8-9-26-21(18)6-5-20(15)28-23-16(13-25)14-27-24-19(23)12-17(31-24)4-7-22(30)29-10-2-3-11-29/h4-9,12,14,26H,2-3,10-11H2,1H3,(H,27,28)/b7-4+

> <PUBCHEM_IUPAC_INCHIKEY>
CRPUDAVZTZIKMJ-QPJJXVBHSA-N

> <PUBCHEM_XLOGP3_AA>
4.9

> <PUBCHEM_EXACT_MASS>
427.14668148

> <PUBCHEM_MOLECULAR_FORMULA>
C24H21N5OS

> <PUBCHEM_MOLECULAR_WEIGHT>
427.5

> <PUBCHEM_SMILES>
CC1=C(C=CC2=C1C=CN2)NC3=C4C=C(SC4=NC=C3C#N)/C=C/C(=O)N5CCCC5

> <PUBCHEM_OPENEYE_CAN_SMILES>
CC1=C(C=CC2=C1C=CN2)NC3=C4C=C(SC4=NC=C3C#N)C=CC(=O)N5CCCC5

> <PUBCHEM_OPENEYE_ISO_SMILES>
CC1=C(C=CC2=C1C=CN2)NC3=C4C=C(SC4=NC=C3C#N)/C=C/C(=O)N5CCCC5

> <PUBCHEM_CACTVS_TPSA>
113

> <PUBCHEM_MONOISOTOPIC_WEIGHT>
427.14668148

> <PUBCHEM_TOTAL_CHARGE>
0

> <PUBCHEM_HEAVY_ATOM_COUNT>
31

> <PUBCHEM_ATOM_DEF_STEREO_COUNT>
0

> <PUBCHEM_ATOM_UDEF_STEREO_COUNT>
0

> <PUBCHEM_BOND_DEF_STEREO_COUNT>
1

> <PUBCHEM_BOND_UDEF_STEREO_COUNT>
0

> <PUBCHEM_ISOTOPIC_ATOM_COUNT>
0

> <PUBCHEM_COMPONENT_COUNT>
1

> <PUBCHEM_CACTVS_TAUTO_COUNT>
-1

> <PUBCHEM_COORDINATE_TYPE>
1
5
255

> <PUBCHEM_BONDANNOTATIONS>
1  21  8
1  25  8
14  15  8
14  16  8
15  17  8
15  26  8
16  22  8
17  24  8
18  19  8
18  23  8
18  25  8
19  28  8
21  23  8
22  24  8
26  29  8
28  30  8
5  17  8
5  29  8
6  25  8
6  30  8

$$$$
