42618140
  -OEChem-03202506522D

 48 51  0     0  0  0  0  0  0999 V2000
    3.4030    3.0000    0.0000 S   0  0  0  0  0  0  0  0  0  0  0  0
    6.0010   -0.5000    0.0000 O   0  0  0  0  0  0  0  0  0  0  0  0
    3.9030    3.8660    0.0000 O   0  0  0  0  0  0  0  0  0  0  0  0
    2.9030    2.1340    0.0000 O   0  0  0  0  0  0  0  0  0  0  0  0
    6.0010   -3.5000    0.0000 N   0  0  0  0  0  0  0  0  0  0  0  0
   10.3991   -0.0208    0.0000 N   0  0  0  0  0  0  0  0  0  0  0  0
    2.5369    3.5000    0.0000 N   0  0  0  0  0  0  0  0  0  0  0  0
    6.0010   -1.5000    0.0000 C   0  0  0  0  0  0  0  0  0  0  0  0
    6.8671   -2.0000    0.0000 C   0  0  0  0  0  0  0  0  0  0  0  0
    5.1350   -2.0000    0.0000 C   0  0  0  0  0  0  0  0  0  0  0  0
    6.8671   -3.0000    0.0000 C   0  0  0  0  0  0  0  0  0  0  0  0
    5.1350   -3.0000    0.0000 C   0  0  0  0  0  0  0  0  0  0  0  0
    6.8671    0.0000    0.0000 C   0  0  0  0  0  0  0  0  0  0  0  0
    6.8671    1.0000    0.0000 C   0  0  0  0  0  0  0  0  0  0  0  0
    7.7331   -0.5000    0.0000 C   0  0  0  0  0  0  0  0  0  0  0  0
    6.0010    1.5000    0.0000 C   0  0  0  0  0  0  0  0  0  0  0  0
    7.7331    1.5000    0.0000 C   0  0  0  0  0  0  0  0  0  0  0  0
    8.5991    0.0000    0.0000 C   0  0  0  0  0  0  0  0  0  0  0  0
    8.5991    1.0000    0.0000 C   0  0  0  0  0  0  0  0  0  0  0  0
    5.1350    1.0000    0.0000 C   0  0  0  0  0  0  0  0  0  0  0  0
    6.0010    2.5000    0.0000 C   0  0  0  0  0  0  0  0  0  0  0  0
    9.4931    1.5347    0.0000 C   0  0  0  0  0  0  0  0  0  0  0  0
    9.4931   -0.5347    0.0000 C   0  0  0  0  0  0  0  0  0  0  0  0
    4.2690    2.5000    0.0000 C   0  0  0  0  0  0  0  0  0  0  0  0
    4.2690    1.5000    0.0000 C   0  0  0  0  0  0  0  0  0  0  0  0
    5.1350    3.0000    0.0000 C   0  0  0  0  0  0  0  0  0  0  0  0
   10.3991    1.0208    0.0000 C   0  0  0  0  0  0  0  0  0  0  0  0
    6.5380   -1.1900    0.0000 H   0  0  0  0  0  0  0  0  0  0  0  0
    7.4776   -2.1077    0.0000 H   0  0  0  0  0  0  0  0  0  0  0  0
    7.0791   -1.4174    0.0000 H   0  0  0  0  0  0  0  0  0  0  0  0
    4.9230   -1.4174    0.0000 H   0  0  0  0  0  0  0  0  0  0  0  0
    4.5244   -2.1077    0.0000 H   0  0  0  0  0  0  0  0  0  0  0  0
    7.0791   -3.5826    0.0000 H   0  0  0  0  0  0  0  0  0  0  0  0
    7.4776   -2.8923    0.0000 H   0  0  0  0  0  0  0  0  0  0  0  0
    4.5244   -2.8923    0.0000 H   0  0  0  0  0  0  0  0  0  0  0  0
    4.9230   -3.5826    0.0000 H   0  0  0  0  0  0  0  0  0  0  0  0
    6.0010   -4.1200    0.0000 H   0  0  0  0  0  0  0  0  0  0  0  0
    7.7331   -1.1200    0.0000 H   0  0  0  0  0  0  0  0  0  0  0  0
    7.7331    2.1200    0.0000 H   0  0  0  0  0  0  0  0  0  0  0  0
    5.1350    0.3800    0.0000 H   0  0  0  0  0  0  0  0  0  0  0  0
    6.5380    2.8100    0.0000 H   0  0  0  0  0  0  0  0  0  0  0  0
    9.4859    2.1546    0.0000 H   0  0  0  0  0  0  0  0  0  0  0  0
    9.4859   -1.1546    0.0000 H   0  0  0  0  0  0  0  0  0  0  0  0
    3.7320    1.1900    0.0000 H   0  0  0  0  0  0  0  0  0  0  0  0
    5.1350    3.6200    0.0000 H   0  0  0  0  0  0  0  0  0  0  0  0
   10.9349    1.3329    0.0000 H   0  0  0  0  0  0  0  0  0  0  0  0
    2.5369    4.1200    0.0000 H   0  0  0  0  0  0  0  0  0  0  0  0
    2.0000    3.1900    0.0000 H   0  0  0  0  0  0  0  0  0  0  0  0
  1  3  2  0  0  0  0
  1  4  2  0  0  0  0
  1  7  1  0  0  0  0
  1 24  1  0  0  0  0
  2  8  1  0  0  0  0
  2 13  1  0  0  0  0
  5 11  1  0  0  0  0
  5 12  1  0  0  0  0
  5 37  1  0  0  0  0
  6 23  2  0  0  0  0
  6 27  1  0  0  0  0
  7 47  1  0  0  0  0
  7 48  1  0  0  0  0
  8  9  1  0  0  0  0
  8 10  1  0  0  0  0
  8 28  1  0  0  0  0
  9 11  1  0  0  0  0
  9 29  1  0  0  0  0
  9 30  1  0  0  0  0
 10 12  1  0  0  0  0
 10 31  1  0  0  0  0
 10 32  1  0  0  0  0
 11 33  1  0  0  0  0
 11 34  1  0  0  0  0
 12 35  1  0  0  0  0
 12 36  1  0  0  0  0
 13 14  2  0  0  0  0
 13 15  1  0  0  0  0
 14 16  1  0  0  0  0
 14 17  1  0  0  0  0
 15 18  2  0  0  0  0
 15 38  1  0  0  0  0
 16 20  2  0  0  0  0
 16 21  1  0  0  0  0
 17 19  2  0  0  0  0
 17 39  1  0  0  0  0
 18 19  1  0  0  0  0
 18 23  1  0  0  0  0
 19 22  1  0  0  0  0
 20 25  1  0  0  0  0
 20 40  1  0  0  0  0
 21 26  2  0  0  0  0
 21 41  1  0  0  0  0
 22 27  2  0  0  0  0
 22 42  1  0  0  0  0
 23 43  1  0  0  0  0
 24 25  2  0  0  0  0
 24 26  1  0  0  0  0
 25 44  1  0  0  0  0
 26 45  1  0  0  0  0
 27 46  1  0  0  0  0
M  END
> <PUBCHEM_COMPOUND_CID>
42618140

> <PUBCHEM_COMPOUND_CANONICALIZED>
1

> <PUBCHEM_CACTVS_COMPLEXITY>
580

> <PUBCHEM_CACTVS_HBOND_ACCEPTOR>
6

> <PUBCHEM_CACTVS_HBOND_DONOR>
2

> <PUBCHEM_CACTVS_ROTATABLE_BOND>
4

> <PUBCHEM_CACTVS_SUBSKEYS>
AAADceB7MABAAAAAAAAAAAAAAAAAAAAAAAA8eIEAAAAAAACx9AAAHgQQQAAADBTh2gY8h9LIFAKgAjBnRHDCiDAxIiAI2Lg+bJgMJuLEsZuGOCjm0BHI6AewwPAO8AADAAAYAADgAAYAADAAAAAAAAAAAA==

> <PUBCHEM_IUPAC_OPENEYE_NAME>
4-[7-(4-piperidyloxy)-6-isoquinolyl]benzenesulfonamide

> <PUBCHEM_IUPAC_CAS_NAME>
4-[7-(4-piperidinyloxy)-6-isoquinolinyl]benzenesulfonamide

> <PUBCHEM_IUPAC_NAME_MARKUP>
4-(7-piperidin-4-yloxyisoquinolin-6-yl)benzenesulfonamide

> <PUBCHEM_IUPAC_NAME>
4-(7-piperidin-4-yloxyisoquinolin-6-yl)benzenesulfonamide

> <PUBCHEM_IUPAC_SYSTEMATIC_NAME>
4-(7-piperidin-4-yloxyisoquinolin-6-yl)benzenesulfonamide

> <PUBCHEM_IUPAC_TRADITIONAL_NAME>
4-[7-(4-piperidyloxy)-6-isoquinolyl]benzenesulfonamide

> <PUBCHEM_IUPAC_INCHI>
InChI=1S/C20H21N3O3S/c21-27(24,25)18-3-1-14(2-4-18)19-11-15-5-8-23-13-16(15)12-20(19)26-17-6-9-22-10-7-17/h1-5,8,11-13,17,22H,6-7,9-10H2,(H2,21,24,25)

> <PUBCHEM_IUPAC_INCHIKEY>
WSLJHPIECPXNSM-UHFFFAOYSA-N

> <PUBCHEM_XLOGP3_AA>
2.4

> <PUBCHEM_EXACT_MASS>
383.13036271

> <PUBCHEM_MOLECULAR_FORMULA>
C20H21N3O3S

> <PUBCHEM_MOLECULAR_WEIGHT>
383.5

> <PUBCHEM_SMILES>
C1CNCCC1OC2=C(C=C3C=CN=CC3=C2)C4=CC=C(C=C4)S(=O)(=O)N

> <PUBCHEM_OPENEYE_CAN_SMILES>
C1CNCCC1OC2=C(C=C3C=CN=CC3=C2)C4=CC=C(C=C4)S(=O)(=O)N

> <PUBCHEM_OPENEYE_ISO_SMILES>
C1CNCCC1OC2=C(C=C3C=CN=CC3=C2)C4=CC=C(C=C4)S(=O)(=O)N

> <PUBCHEM_CACTVS_TPSA>
103

> <PUBCHEM_MONOISOTOPIC_WEIGHT>
383.13036271

> <PUBCHEM_TOTAL_CHARGE>
0

> <PUBCHEM_HEAVY_ATOM_COUNT>
27

> <PUBCHEM_ATOM_DEF_STEREO_COUNT>
0

> <PUBCHEM_ATOM_UDEF_STEREO_COUNT>
0

> <PUBCHEM_BOND_DEF_STEREO_COUNT>
0

> <PUBCHEM_BOND_UDEF_STEREO_COUNT>
0

> <PUBCHEM_ISOTOPIC_ATOM_COUNT>
0

> <PUBCHEM_COMPONENT_COUNT>
1

> <PUBCHEM_CACTVS_TAUTO_COUNT>
-1

> <PUBCHEM_COORDINATE_TYPE>
1
5
255

> <PUBCHEM_BONDANNOTATIONS>
13  14  8
13  15  8
14  17  8
15  18  8
16  20  8
16  21  8
17  19  8
18  19  8
18  23  8
19  22  8
20  25  8
21  26  8
22  27  8
24  25  8
24  26  8
6  23  8
6  27  8

$$$$
