1035509
  -OEChem-03202500182D

 41 44  0     0  0  0  0  0  0999 V2000
   12.1197   -0.2606    0.0000 O   0  0  0  0  0  0  0  0  0  0  0  0
    7.0826   -0.2877    0.0000 O   0  0  0  0  0  0  0  0  0  0  0  0
    9.8596    0.9995    0.0000 N   0  0  0  0  0  0  0  0  0  0  0  0
    9.5506    1.9506    0.0000 N   0  0  0  0  0  0  0  0  0  0  0  0
    8.5506    1.9506    0.0000 N   0  0  0  0  0  0  0  0  0  0  0  0
   11.1197   -0.2606    0.0000 N   0  0  0  0  0  0  0  0  0  0  0  0
    6.5474    1.3596    0.0000 N   0  0  0  0  0  0  0  0  0  0  0  0
   12.4287    0.6905    0.0000 N   0  0  0  0  0  0  0  0  0  0  0  0
   11.6197    2.2783    0.0000 N   0  0  0  0  0  0  0  0  0  0  0  0
    5.5963    1.0506    0.0000 N   0  0  0  0  0  0  0  0  0  0  0  0
    2.0000    0.7927    0.0000 N   0  0  0  0  0  0  0  0  0  0  0  0
    9.0506    0.4117    0.0000 C   0  0  0  0  0  0  0  0  0  0  0  0
    9.0506   -0.5883    0.0000 C   0  0  0  0  0  0  0  0  0  0  0  0
    8.2416    0.9995    0.0000 C   0  0  0  0  0  0  0  0  0  0  0  0
   10.8107    0.6905    0.0000 C   0  0  0  0  0  0  0  0  0  0  0  0
    8.1846   -1.0883    0.0000 C   0  0  0  0  0  0  0  0  0  0  0  0
    9.9166   -1.0883    0.0000 C   0  0  0  0  0  0  0  0  0  0  0  0
    7.2905    0.6905    0.0000 C   0  0  0  0  0  0  0  0  0  0  0  0
    8.1846   -2.0883    0.0000 C   0  0  0  0  0  0  0  0  0  0  0  0
    9.9166   -2.0883    0.0000 C   0  0  0  0  0  0  0  0  0  0  0  0
   11.6197    1.2783    0.0000 C   0  0  0  0  0  0  0  0  0  0  0  0
    9.0506   -2.5883    0.0000 C   0  0  0  0  0  0  0  0  0  0  0  0
    3.9021    1.4107    0.0000 C   0  0  0  0  0  0  0  0  0  0  0  0
    4.8532    1.7197    0.0000 C   0  0  0  0  0  0  0  0  0  0  0  0
    3.1590    2.0798    0.0000 C   0  0  0  0  0  0  0  0  0  0  0  0
    3.6942    0.4326    0.0000 C   0  0  0  0  0  0  0  0  0  0  0  0
    2.2079    1.7708    0.0000 C   0  0  0  0  0  0  0  0  0  0  0  0
    2.7431    0.1236    0.0000 C   0  0  0  0  0  0  0  0  0  0  0  0
    7.6476   -0.7783    0.0000 H   0  0  0  0  0  0  0  0  0  0  0  0
   10.4536   -0.7783    0.0000 H   0  0  0  0  0  0  0  0  0  0  0  0
    7.6476   -2.3983    0.0000 H   0  0  0  0  0  0  0  0  0  0  0  0
   10.4536   -2.3983    0.0000 H   0  0  0  0  0  0  0  0  0  0  0  0
    9.0506   -3.2083    0.0000 H   0  0  0  0  0  0  0  0  0  0  0  0
    6.6763    1.9661    0.0000 H   0  0  0  0  0  0  0  0  0  0  0  0
   12.1566    2.5883    0.0000 H   0  0  0  0  0  0  0  0  0  0  0  0
   11.0827    2.5883    0.0000 H   0  0  0  0  0  0  0  0  0  0  0  0
    4.9821    2.3262    0.0000 H   0  0  0  0  0  0  0  0  0  0  0  0
    3.2879    2.6863    0.0000 H   0  0  0  0  0  0  0  0  0  0  0  0
    4.1550    0.0177    0.0000 H   0  0  0  0  0  0  0  0  0  0  0  0
    1.7472    2.1857    0.0000 H   0  0  0  0  0  0  0  0  0  0  0  0
    2.6142   -0.4829    0.0000 H   0  0  0  0  0  0  0  0  0  0  0  0
  1  6  1  0  0  0  0
  1  8  1  0  0  0  0
  2 18  2  0  0  0  0
  3  4  1  0  0  0  0
  3 12  1  0  0  0  0
  3 15  1  0  0  0  0
  4  5  2  0  0  0  0
  5 14  1  0  0  0  0
  6 15  2  0  0  0  0
  7 10  1  0  0  0  0
  7 18  1  0  0  0  0
  7 34  1  0  0  0  0
  8 21  2  0  0  0  0
  9 21  1  0  0  0  0
  9 35  1  0  0  0  0
  9 36  1  0  0  0  0
 10 24  2  3  0  0  0
 11 27  2  0  0  0  0
 11 28  1  0  0  0  0
 12 13  1  0  0  0  0
 12 14  2  0  0  0  0
 13 16  2  0  0  0  0
 13 17  1  0  0  0  0
 14 18  1  0  0  0  0
 15 21  1  0  0  0  0
 16 19  1  0  0  0  0
 16 29  1  0  0  0  0
 17 20  2  0  0  0  0
 17 30  1  0  0  0  0
 19 22  2  0  0  0  0
 19 31  1  0  0  0  0
 20 22  1  0  0  0  0
 20 32  1  0  0  0  0
 22 33  1  0  0  0  0
 23 24  1  0  0  0  0
 23 25  2  0  0  0  0
 23 26  1  0  0  0  0
 24 37  1  0  0  0  0
 25 27  1  0  0  0  0
 25 38  1  0  0  0  0
 26 28  2  0  0  0  0
 26 39  1  0  0  0  0
 27 40  1  0  0  0  0
 28 41  1  0  0  0  0
M  END
> <PUBCHEM_COMPOUND_CID>
1035509

> <PUBCHEM_COMPOUND_CANONICALIZED>
1

> <PUBCHEM_CACTVS_COMPLEXITY>
551

> <PUBCHEM_CACTVS_HBOND_ACCEPTOR>
9

> <PUBCHEM_CACTVS_HBOND_DONOR>
2

> <PUBCHEM_CACTVS_ROTATABLE_BOND>
5

> <PUBCHEM_CACTVS_SUBSKEYS>
AAADccB78AAAAAAAAAAAAAAAAAAAAWLAAAA8QAAAAAAAAAAB/AAAHgAcAAAADAjBngQ9sJJ6EACrAzd3dgCShCQ3EiA/2CG4dNqIYPrA2ZGUIYhgiILIyWcYiICOAAAAAAAAAAAAAAAAAAAAAAAAAAAAAA==

> <PUBCHEM_IUPAC_OPENEYE_NAME>
1-(4-amino-1,2,5-oxadiazol-3-yl)-5-phenyl-N-(4-pyridylmethyleneamino)triazole-4-carboxamide

> <PUBCHEM_IUPAC_CAS_NAME>
1-(4-amino-1,2,5-oxadiazol-3-yl)-5-phenyl-N-(pyridin-4-ylmethylideneamino)-4-triazolecarboxamide

> <PUBCHEM_IUPAC_NAME_MARKUP>
1-(4-amino-1,2,5-oxadiazol-3-yl)-5-phenyl-<I>N</I>-(pyridin-4-ylmethylideneamino)triazole-4-carboxamide

> <PUBCHEM_IUPAC_NAME>
1-(4-amino-1,2,5-oxadiazol-3-yl)-5-phenyl-N-(pyridin-4-ylmethylideneamino)triazole-4-carboxamide

> <PUBCHEM_IUPAC_SYSTEMATIC_NAME>
1-(4-azanyl-1,2,5-oxadiazol-3-yl)-5-phenyl-N-(pyridin-4-ylmethylideneamino)-1,2,3-triazole-4-carboxamide

> <PUBCHEM_IUPAC_TRADITIONAL_NAME>
1-(4-aminofurazan-3-yl)-5-phenyl-N-(4-pyridylmethyleneamino)triazole-4-carboxamide

> <PUBCHEM_IUPAC_INCHI>
InChI=1S/C17H13N9O2/c18-15-16(24-28-23-15)26-14(12-4-2-1-3-5-12)13(21-25-26)17(27)22-20-10-11-6-8-19-9-7-11/h1-10H,(H2,18,23)(H,22,27)

> <PUBCHEM_IUPAC_INCHIKEY>
NMWSFHOBJVDICZ-UHFFFAOYSA-N

> <PUBCHEM_XLOGP3_AA>
1

> <PUBCHEM_EXACT_MASS>
375.11922069

> <PUBCHEM_MOLECULAR_FORMULA>
C17H13N9O2

> <PUBCHEM_MOLECULAR_WEIGHT>
375.3

> <PUBCHEM_SMILES>
C1=CC=C(C=C1)C2=C(N=NN2C3=NON=C3N)C(=O)NN=CC4=CC=NC=C4

> <PUBCHEM_OPENEYE_CAN_SMILES>
C1=CC=C(C=C1)C2=C(N=NN2C3=NON=C3N)C(=O)NN=CC4=CC=NC=C4

> <PUBCHEM_OPENEYE_ISO_SMILES>
C1=CC=C(C=C1)C2=C(N=NN2C3=NON=C3N)C(=O)NN=CC4=CC=NC=C4

> <PUBCHEM_CACTVS_TPSA>
150

> <PUBCHEM_MONOISOTOPIC_WEIGHT>
375.11922069

> <PUBCHEM_TOTAL_CHARGE>
0

> <PUBCHEM_HEAVY_ATOM_COUNT>
28

> <PUBCHEM_ATOM_DEF_STEREO_COUNT>
0

> <PUBCHEM_ATOM_UDEF_STEREO_COUNT>
0

> <PUBCHEM_BOND_DEF_STEREO_COUNT>
0

> <PUBCHEM_BOND_UDEF_STEREO_COUNT>
1

> <PUBCHEM_ISOTOPIC_ATOM_COUNT>
0

> <PUBCHEM_COMPONENT_COUNT>
1

> <PUBCHEM_CACTVS_TAUTO_COUNT>
-1

> <PUBCHEM_COORDINATE_TYPE>
1
5
255

> <PUBCHEM_BONDANNOTATIONS>
1  6  8
1  8  8
10  24  1
11  27  8
11  28  8
12  14  8
13  16  8
13  17  8
15  21  8
16  19  8
17  20  8
19  22  8
20  22  8
23  25  8
23  26  8
25  27  8
26  28  8
3  12  8
3  4  8
4  5  8
5  14  8
6  15  8
8  21  8

$$$$
