11723489
  -OEChem-03202507032D

 43 45  0     0  0  0  0  0  0999 V2000
    7.8133   -1.3047    0.0000 S   0  0  0  0  0  0  0  0  0  0  0  0
    9.8969    0.3660    0.0000 O   0  0  0  0  0  0  0  0  0  0  0  0
    4.2690   -1.5000    0.0000 N   0  0  0  0  0  0  0  0  0  0  0  0
    2.5369   -2.5000    0.0000 N   0  0  0  0  0  0  0  0  0  0  0  0
    6.0010   -1.5000    0.0000 N   0  0  0  0  0  0  0  0  0  0  0  0
    8.1240    1.2552    0.0000 N   0  0  0  0  0  0  0  0  0  0  0  0
    9.8969   -1.3660    0.0000 N   0  0  0  0  0  0  0  0  0  0  0  0
    3.4030   -1.0000    0.0000 C   0  0  0  0  0  0  0  0  0  0  0  0
    4.2690   -2.5000    0.0000 C   0  0  0  0  0  0  0  0  0  0  0  0
    2.5369   -1.5000    0.0000 C   0  0  0  0  0  0  0  0  0  0  0  0
    3.4030   -3.0000    0.0000 C   0  0  0  0  0  0  0  0  0  0  0  0
    5.1350   -1.0000    0.0000 C   0  0  0  0  0  0  0  0  0  0  0  0
    6.0010    0.5000    0.0000 C   0  0  0  0  0  0  0  0  0  0  0  0
    6.8671    0.0000    0.0000 C   0  0  0  0  0  0  0  0  0  0  0  0
    5.1350    0.0000    0.0000 C   0  0  0  0  0  0  0  0  0  0  0  0
    6.0010    1.5000    0.0000 C   0  0  0  0  0  0  0  0  0  0  0  0
    6.8671   -1.0000    0.0000 C   0  0  0  0  0  0  0  0  0  0  0  0
    7.8133    0.3047    0.0000 C   0  0  0  0  0  0  0  0  0  0  0  0
    5.1350    2.0000    0.0000 C   0  0  0  0  0  0  0  0  0  0  0  0
    8.3969   -0.5000    0.0000 C   0  0  0  0  0  0  0  0  0  0  0  0
    5.1350    3.0000    0.0000 C   0  0  0  0  0  0  0  0  0  0  0  0
    9.3969   -0.5000    0.0000 C   0  0  0  0  0  0  0  0  0  0  0  0
    3.8015   -0.5251    0.0000 H   0  0  0  0  0  0  0  0  0  0  0  0
    3.0044   -0.5251    0.0000 H   0  0  0  0  0  0  0  0  0  0  0  0
    4.4810   -3.0826    0.0000 H   0  0  0  0  0  0  0  0  0  0  0  0
    4.8796   -2.3923    0.0000 H   0  0  0  0  0  0  0  0  0  0  0  0
    2.3249   -0.9174    0.0000 H   0  0  0  0  0  0  0  0  0  0  0  0
    1.9264   -1.6077    0.0000 H   0  0  0  0  0  0  0  0  0  0  0  0
    3.0044   -3.4750    0.0000 H   0  0  0  0  0  0  0  0  0  0  0  0
    3.8015   -3.4750    0.0000 H   0  0  0  0  0  0  0  0  0  0  0  0
    2.0000   -2.8100    0.0000 H   0  0  0  0  0  0  0  0  0  0  0  0
    4.5981    0.3100    0.0000 H   0  0  0  0  0  0  0  0  0  0  0  0
    6.6116    1.3923    0.0000 H   0  0  0  0  0  0  0  0  0  0  0  0
    6.2131    2.0826    0.0000 H   0  0  0  0  0  0  0  0  0  0  0  0
    4.5244    2.1077    0.0000 H   0  0  0  0  0  0  0  0  0  0  0  0
    4.9230    1.4174    0.0000 H   0  0  0  0  0  0  0  0  0  0  0  0
    5.7550    3.0000    0.0000 H   0  0  0  0  0  0  0  0  0  0  0  0
    5.1350    3.6200    0.0000 H   0  0  0  0  0  0  0  0  0  0  0  0
    4.5150    3.0000    0.0000 H   0  0  0  0  0  0  0  0  0  0  0  0
    8.7306    1.3831    0.0000 H   0  0  0  0  0  0  0  0  0  0  0  0
    7.7099    1.7167    0.0000 H   0  0  0  0  0  0  0  0  0  0  0  0
   10.5169   -1.3660    0.0000 H   0  0  0  0  0  0  0  0  0  0  0  0
    9.5869   -1.9030    0.0000 H   0  0  0  0  0  0  0  0  0  0  0  0
  1 17  1  0  0  0  0
  1 20  1  0  0  0  0
  2 22  2  0  0  0  0
  3  8  1  0  0  0  0
  3  9  1  0  0  0  0
  3 12  1  0  0  0  0
  4 10  1  0  0  0  0
  4 11  1  0  0  0  0
  4 31  1  0  0  0  0
  5 12  2  0  0  0  0
  5 17  1  0  0  0  0
  6 18  1  0  0  0  0
  6 40  1  0  0  0  0
  6 41  1  0  0  0  0
  7 22  1  0  0  0  0
  7 42  1  0  0  0  0
  7 43  1  0  0  0  0
  8 10  1  0  0  0  0
  8 23  1  0  0  0  0
  8 24  1  0  0  0  0
  9 11  1  0  0  0  0
  9 25  1  0  0  0  0
  9 26  1  0  0  0  0
 10 27  1  0  0  0  0
 10 28  1  0  0  0  0
 11 29  1  0  0  0  0
 11 30  1  0  0  0  0
 12 15  1  0  0  0  0
 13 14  1  0  0  0  0
 13 15  2  0  0  0  0
 13 16  1  0  0  0  0
 14 17  2  0  0  0  0
 14 18  1  0  0  0  0
 15 32  1  0  0  0  0
 16 19  1  0  0  0  0
 16 33  1  0  0  0  0
 16 34  1  0  0  0  0
 18 20  2  0  0  0  0
 19 21  1  0  0  0  0
 19 35  1  0  0  0  0
 19 36  1  0  0  0  0
 20 22  1  0  0  0  0
 21 37  1  0  0  0  0
 21 38  1  0  0  0  0
 21 39  1  0  0  0  0
M  END
> <PUBCHEM_COMPOUND_CID>
11723489

> <PUBCHEM_COMPOUND_CANONICALIZED>
1

> <PUBCHEM_CACTVS_COMPLEXITY>
403

> <PUBCHEM_CACTVS_HBOND_ACCEPTOR>
6

> <PUBCHEM_CACTVS_HBOND_DONOR>
3

> <PUBCHEM_CACTVS_ROTATABLE_BOND>
4

> <PUBCHEM_CACTVS_SUBSKEYS>
AAADceBzoABAAAAAAAAAAAAAAAAAASAAAAAsWAAAAAAAAFgB+AAAHgQQAAAADAjB2gQz8dPIEAisAidydACD0KllCjgBmLU4ZNiIYHrg3dGUJYxokALoyWcYiYCOgAAAAAAAAAAAAAAAAAAAAAAAAAAAAA==

> <PUBCHEM_IUPAC_OPENEYE_NAME>
3-amino-6-piperazin-1-yl-4-propyl-thieno[2,3-b]pyridine-2-carboxamide

> <PUBCHEM_IUPAC_CAS_NAME>
3-amino-6-(1-piperazinyl)-4-propyl-2-thieno[2,3-b]pyridinecarboxamide

> <PUBCHEM_IUPAC_NAME_MARKUP>
3-amino-6-piperazin-1-yl-4-propylthieno[2,3-b]pyridine-2-carboxamide

> <PUBCHEM_IUPAC_NAME>
3-amino-6-piperazin-1-yl-4-propylthieno[2,3-b]pyridine-2-carboxamide

> <PUBCHEM_IUPAC_SYSTEMATIC_NAME>
3-azanyl-6-piperazin-1-yl-4-propyl-thieno[2,3-b]pyridine-2-carboxamide

> <PUBCHEM_IUPAC_TRADITIONAL_NAME>
3-amino-6-piperazino-4-propyl-thieno[2,3-b]pyridine-2-carboxamide

> <PUBCHEM_IUPAC_INCHI>
InChI=1S/C15H21N5OS/c1-2-3-9-8-10(20-6-4-18-5-7-20)19-15-11(9)12(16)13(22-15)14(17)21/h8,18H,2-7,16H2,1H3,(H2,17,21)

> <PUBCHEM_IUPAC_INCHIKEY>
MNHPQFWACBMBQT-UHFFFAOYSA-N

> <PUBCHEM_XLOGP3_AA>
2.4

> <PUBCHEM_EXACT_MASS>
319.14668148

> <PUBCHEM_MOLECULAR_FORMULA>
C15H21N5OS

> <PUBCHEM_MOLECULAR_WEIGHT>
319.4

> <PUBCHEM_SMILES>
CCCC1=CC(=NC2=C1C(=C(S2)C(=O)N)N)N3CCNCC3

> <PUBCHEM_OPENEYE_CAN_SMILES>
CCCC1=CC(=NC2=C1C(=C(S2)C(=O)N)N)N3CCNCC3

> <PUBCHEM_OPENEYE_ISO_SMILES>
CCCC1=CC(=NC2=C1C(=C(S2)C(=O)N)N)N3CCNCC3

> <PUBCHEM_CACTVS_TPSA>
126

> <PUBCHEM_MONOISOTOPIC_WEIGHT>
319.14668148

> <PUBCHEM_TOTAL_CHARGE>
0

> <PUBCHEM_HEAVY_ATOM_COUNT>
22

> <PUBCHEM_ATOM_DEF_STEREO_COUNT>
0

> <PUBCHEM_ATOM_UDEF_STEREO_COUNT>
0

> <PUBCHEM_BOND_DEF_STEREO_COUNT>
0

> <PUBCHEM_BOND_UDEF_STEREO_COUNT>
0

> <PUBCHEM_ISOTOPIC_ATOM_COUNT>
0

> <PUBCHEM_COMPONENT_COUNT>
1

> <PUBCHEM_CACTVS_TAUTO_COUNT>
-1

> <PUBCHEM_COORDINATE_TYPE>
1
5
255

> <PUBCHEM_BONDANNOTATIONS>
1  17  8
1  20  8
12  15  8
13  14  8
13  15  8
14  17  8
14  18  8
18  20  8
5  12  8
5  17  8

$$$$
