44405504
  -OEChem-03202505502D

 61 65  0     0  0  0  0  0  0999 V2000
   14.1961   -3.4418    0.0000 O   0  0  0  0  0  0  0  0  0  0  0  0
    2.8660    1.0173    0.0000 O   0  0  0  0  0  0  0  0  0  0  0  0
   12.4602   -2.4485    0.0000 N   0  0  0  0  0  0  0  0  0  0  0  0
    9.8602   -1.9585    0.0000 N   0  0  0  0  0  0  0  0  0  0  0  0
    8.9962   -3.5035    0.0000 N   0  0  0  0  0  0  0  0  0  0  0  0
    6.3301   -0.9827    0.0000 N   0  0  0  0  0  0  0  0  0  0  0  0
    6.3301   -3.9827    0.0000 N   0  0  0  0  0  0  0  0  0  0  0  0
    3.7320   -1.4827    0.0000 N   0  0  0  0  0  0  0  0  0  0  0  0
   13.3243   -1.9452    0.0000 C   0  0  0  0  0  0  0  0  0  0  0  0
   12.4641   -3.4485    0.0000 C   0  0  0  0  0  0  0  0  0  0  0  0
   11.5923   -1.9518    0.0000 C   0  0  0  0  0  0  0  0  0  0  0  0
   14.1923   -2.4418    0.0000 C   0  0  0  0  0  0  0  0  0  0  0  0
   13.3320   -3.9452    0.0000 C   0  0  0  0  0  0  0  0  0  0  0  0
   10.7282   -2.4552    0.0000 C   0  0  0  0  0  0  0  0  0  0  0  0
    8.9962   -2.4618    0.0000 C   0  0  0  0  0  0  0  0  0  0  0  0
    7.1962   -2.4827    0.0000 C   0  0  0  0  0  0  0  0  0  0  0  0
    8.0901   -1.9480    0.0000 C   0  0  0  0  0  0  0  0  0  0  0  0
    6.3301   -1.9827    0.0000 C   0  0  0  0  0  0  0  0  0  0  0  0
    7.1962   -3.4827    0.0000 C   0  0  0  0  0  0  0  0  0  0  0  0
    8.0901   -4.0173    0.0000 C   0  0  0  0  0  0  0  0  0  0  0  0
    5.4641   -2.4827    0.0000 C   0  0  0  0  0  0  0  0  0  0  0  0
    5.4641   -0.4827    0.0000 C   0  0  0  0  0  0  0  0  0  0  0  0
    5.4641   -3.4827    0.0000 C   0  0  0  0  0  0  0  0  0  0  0  0
    5.4641    0.5173    0.0000 C   0  0  0  0  0  0  0  0  0  0  0  0
    4.5981   -0.9827    0.0000 C   0  0  0  0  0  0  0  0  0  0  0  0
    3.7320    0.5173    0.0000 C   0  0  0  0  0  0  0  0  0  0  0  0
    4.5981    1.0173    0.0000 C   0  0  0  0  0  0  0  0  0  0  0  0
    3.7320   -0.4827    0.0000 C   0  0  0  0  0  0  0  0  0  0  0  0
    4.5981   -1.9827    0.0000 C   0  0  0  0  0  0  0  0  0  0  0  0
    2.8660    2.0173    0.0000 C   0  0  0  0  0  0  0  0  0  0  0  0
    2.0000    2.5173    0.0000 C   0  0  0  0  0  0  0  0  0  0  0  0
    3.7320    2.5173    0.0000 C   0  0  0  0  0  0  0  0  0  0  0  0
    2.0000    3.5173    0.0000 C   0  0  0  0  0  0  0  0  0  0  0  0
    3.7320    3.5173    0.0000 C   0  0  0  0  0  0  0  0  0  0  0  0
    2.8660    4.0173    0.0000 C   0  0  0  0  0  0  0  0  0  0  0  0
   13.7210   -1.4687    0.0000 H   0  0  0  0  0  0  0  0  0  0  0  0
   12.9240   -1.4718    0.0000 H   0  0  0  0  0  0  0  0  0  0  0  0
   11.8531   -3.3432    0.0000 H   0  0  0  0  0  0  0  0  0  0  0  0
   12.2543   -4.0319    0.0000 H   0  0  0  0  0  0  0  0  0  0  0  0
   11.9890   -1.4754    0.0000 H   0  0  0  0  0  0  0  0  0  0  0  0
   11.1919   -1.4784    0.0000 H   0  0  0  0  0  0  0  0  0  0  0  0
   14.8033   -2.5471    0.0000 H   0  0  0  0  0  0  0  0  0  0  0  0
   14.4021   -1.8584    0.0000 H   0  0  0  0  0  0  0  0  0  0  0  0
   12.9353   -4.4216    0.0000 H   0  0  0  0  0  0  0  0  0  0  0  0
   13.7324   -4.4186    0.0000 H   0  0  0  0  0  0  0  0  0  0  0  0
   10.3315   -2.9317    0.0000 H   0  0  0  0  0  0  0  0  0  0  0  0
   11.1286   -2.9286    0.0000 H   0  0  0  0  0  0  0  0  0  0  0  0
    9.8579   -1.3385    0.0000 H   0  0  0  0  0  0  0  0  0  0  0  0
    8.0829   -1.3280    0.0000 H   0  0  0  0  0  0  0  0  0  0  0  0
    8.0829   -4.6373    0.0000 H   0  0  0  0  0  0  0  0  0  0  0  0
    6.8671   -0.6727    0.0000 H   0  0  0  0  0  0  0  0  0  0  0  0
    4.9272   -3.7927    0.0000 H   0  0  0  0  0  0  0  0  0  0  0  0
    6.0010    0.8273    0.0000 H   0  0  0  0  0  0  0  0  0  0  0  0
    4.5981   -1.6027    0.0000 H   0  0  0  0  0  0  0  0  0  0  0  0
    4.5981    1.6373    0.0000 H   0  0  0  0  0  0  0  0  0  0  0  0
    3.1951   -0.7927    0.0000 H   0  0  0  0  0  0  0  0  0  0  0  0
    1.4631    2.2073    0.0000 H   0  0  0  0  0  0  0  0  0  0  0  0
    4.2690    2.2073    0.0000 H   0  0  0  0  0  0  0  0  0  0  0  0
    1.4631    3.8273    0.0000 H   0  0  0  0  0  0  0  0  0  0  0  0
    4.2690    3.8273    0.0000 H   0  0  0  0  0  0  0  0  0  0  0  0
    2.8660    4.6373    0.0000 H   0  0  0  0  0  0  0  0  0  0  0  0
  1 12  1  0  0  0  0
  1 13  1  0  0  0  0
  2 26  1  0  0  0  0
  2 30  1  0  0  0  0
  3  9  1  0  0  0  0
  3 10  1  0  0  0  0
  3 11  1  0  0  0  0
  4 14  1  0  0  0  0
  4 15  1  0  0  0  0
  4 48  1  0  0  0  0
  5 15  2  0  0  0  0
  5 20  1  0  0  0  0
  6 18  1  0  0  0  0
  6 22  1  0  0  0  0
  6 51  1  0  0  0  0
  7 19  1  0  0  0  0
  7 23  2  0  0  0  0
  8 29  3  0  0  0  0
  9 12  1  0  0  0  0
  9 36  1  0  0  0  0
  9 37  1  0  0  0  0
 10 13  1  0  0  0  0
 10 38  1  0  0  0  0
 10 39  1  0  0  0  0
 11 14  1  0  0  0  0
 11 40  1  0  0  0  0
 11 41  1  0  0  0  0
 12 42  1  0  0  0  0
 12 43  1  0  0  0  0
 13 44  1  0  0  0  0
 13 45  1  0  0  0  0
 14 46  1  0  0  0  0
 14 47  1  0  0  0  0
 15 17  1  0  0  0  0
 16 17  2  0  0  0  0
 16 18  1  0  0  0  0
 16 19  1  0  0  0  0
 17 49  1  0  0  0  0
 18 21  2  0  0  0  0
 19 20  2  0  0  0  0
 20 50  1  0  0  0  0
 21 23  1  0  0  0  0
 21 29  1  0  0  0  0
 22 24  2  0  0  0  0
 22 25  1  0  0  0  0
 23 52  1  0  0  0  0
 24 27  1  0  0  0  0
 24 53  1  0  0  0  0
 25 28  2  0  0  0  0
 25 54  1  0  0  0  0
 26 27  2  0  0  0  0
 26 28  1  0  0  0  0
 27 55  1  0  0  0  0
 28 56  1  0  0  0  0
 30 31  2  0  0  0  0
 30 32  1  0  0  0  0
 31 33  1  0  0  0  0
 31 57  1  0  0  0  0
 32 34  2  0  0  0  0
 32 58  1  0  0  0  0
 33 35  2  0  0  0  0
 33 59  1  0  0  0  0
 34 35  1  0  0  0  0
 34 60  1  0  0  0  0
 35 61  1  0  0  0  0
M  END
> <PUBCHEM_COMPOUND_CID>
44405504

> <PUBCHEM_COMPOUND_CANONICALIZED>
1

> <PUBCHEM_CACTVS_COMPLEXITY>
680

> <PUBCHEM_CACTVS_HBOND_ACCEPTOR>
8

> <PUBCHEM_CACTVS_HBOND_DONOR>
2

> <PUBCHEM_CACTVS_ROTATABLE_BOND>
8

> <PUBCHEM_CACTVS_SUBSKEYS>
AAADceB7sAAAAAAAAAAAAAAAAAAAAAAAAAA8eLECAAAAAACx/AAAHgAQAAAADAzhngY99vPIFACwBzZnZACiiC0xMiAJ2KA+fJiO5uLE+duXPCjs0BPY6C+wQAAOAEAAAAAAAAAAgAAAAAAAAAAAAAAAAA==

> <PUBCHEM_IUPAC_OPENEYE_NAME>
6-(2-morpholinoethylamino)-4-(4-phenoxyanilino)-1,7-naphthyridine-3-carbonitrile

> <PUBCHEM_IUPAC_CAS_NAME>
6-[2-(4-morpholinyl)ethylamino]-4-(4-phenoxyanilino)-1,7-naphthyridine-3-carbonitrile

> <PUBCHEM_IUPAC_NAME_MARKUP>
6-(2-morpholin-4-ylethylamino)-4-(4-phenoxyanilino)-1,7-naphthyridine-3-carbonitrile

> <PUBCHEM_IUPAC_NAME>
6-(2-morpholin-4-ylethylamino)-4-(4-phenoxyanilino)-1,7-naphthyridine-3-carbonitrile

> <PUBCHEM_IUPAC_SYSTEMATIC_NAME>
6-(2-morpholin-4-ylethylamino)-4-[(4-phenoxyphenyl)amino]-1,7-naphthyridine-3-carbonitrile

> <PUBCHEM_IUPAC_TRADITIONAL_NAME>
6-(2-morpholinoethylamino)-4-(4-phenoxyanilino)-1,7-naphthyridine-3-carbonitrile

> <PUBCHEM_IUPAC_INCHI>
InChI=1S/C27H26N6O2/c28-17-20-18-30-25-19-31-26(29-10-11-33-12-14-34-15-13-33)16-24(25)27(20)32-21-6-8-23(9-7-21)35-22-4-2-1-3-5-22/h1-9,16,18-19H,10-15H2,(H,29,31)(H,30,32)

> <PUBCHEM_IUPAC_INCHIKEY>
YUYWSKXPXLUJNA-UHFFFAOYSA-N

> <PUBCHEM_XLOGP3_AA>
4.4

> <PUBCHEM_EXACT_MASS>
466.21172409

> <PUBCHEM_MOLECULAR_FORMULA>
C27H26N6O2

> <PUBCHEM_MOLECULAR_WEIGHT>
466.5

> <PUBCHEM_SMILES>
C1COCCN1CCNC2=NC=C3C(=C2)C(=C(C=N3)C#N)NC4=CC=C(C=C4)OC5=CC=CC=C5

> <PUBCHEM_OPENEYE_CAN_SMILES>
C1COCCN1CCNC2=NC=C3C(=C2)C(=C(C=N3)C#N)NC4=CC=C(C=C4)OC5=CC=CC=C5

> <PUBCHEM_OPENEYE_ISO_SMILES>
C1COCCN1CCNC2=NC=C3C(=C2)C(=C(C=N3)C#N)NC4=CC=C(C=C4)OC5=CC=CC=C5

> <PUBCHEM_CACTVS_TPSA>
95.3

> <PUBCHEM_MONOISOTOPIC_WEIGHT>
466.21172409

> <PUBCHEM_TOTAL_CHARGE>
0

> <PUBCHEM_HEAVY_ATOM_COUNT>
35

> <PUBCHEM_ATOM_DEF_STEREO_COUNT>
0

> <PUBCHEM_ATOM_UDEF_STEREO_COUNT>
0

> <PUBCHEM_BOND_DEF_STEREO_COUNT>
0

> <PUBCHEM_BOND_UDEF_STEREO_COUNT>
0

> <PUBCHEM_ISOTOPIC_ATOM_COUNT>
0

> <PUBCHEM_COMPONENT_COUNT>
1

> <PUBCHEM_CACTVS_TAUTO_COUNT>
-1

> <PUBCHEM_COORDINATE_TYPE>
1
5
255

> <PUBCHEM_BONDANNOTATIONS>
15  17  8
16  17  8
16  18  8
16  19  8
18  21  8
19  20  8
21  23  8
22  24  8
22  25  8
24  27  8
25  28  8
26  27  8
26  28  8
30  31  8
30  32  8
31  33  8
32  34  8
33  35  8
34  35  8
5  15  8
5  20  8
7  19  8
7  23  8

$$$$
