52936621
  -OEChem-03202500302D

 66 70  0     1  0  0  0  0  0999 V2000
    7.9128   -0.8155    0.0000 O   0  0  0  0  0  0  0  0  0  0  0  0
    7.0468   -4.3155    0.0000 O   0  0  0  0  0  0  0  0  0  0  0  0
    3.5827    0.6845    0.0000 N   0  0  3  0  0  0  0  0  0  0  0  0
    4.0134    3.3263    0.0000 N   0  0  0  0  0  0  0  0  0  0  0  0
    7.0468   -2.3155    0.0000 N   0  0  0  0  0  0  0  0  0  0  0  0
    8.7788   -4.3155    0.0000 N   0  0  0  0  0  0  0  0  0  0  0  0
   10.5109   -1.3155    0.0000 N   0  0  0  0  0  0  0  0  0  0  0  0
   12.2429   -2.3155    0.0000 N   0  0  0  0  0  0  0  0  0  0  0  0
   11.3769    0.1845    0.0000 N   0  0  0  0  0  0  0  0  0  0  0  0
    3.4782    1.6790    0.0000 C   0  0  2  0  0  0  0  0  0  0  0  0
    4.2213    2.3482    0.0000 C   0  0  0  0  0  0  0  0  0  0  0  0
    2.5000    1.8870    0.0000 C   0  0  0  0  0  0  0  0  0  0  0  0
    2.0000    1.0209    0.0000 C   0  0  0  0  0  0  0  0  0  0  0  0
    2.6691    0.2778    0.0000 C   0  0  0  0  0  0  0  0  0  0  0  0
    4.6825    4.0695    0.0000 C   0  0  0  0  0  0  0  0  0  0  0  0
    3.0998    3.7330    0.0000 C   0  0  0  0  0  0  0  0  0  0  0  0
    4.1825    4.9355    0.0000 C   0  0  0  0  0  0  0  0  0  0  0  0
    3.2044    4.7276    0.0000 C   0  0  0  0  0  0  0  0  0  0  0  0
    4.4487    0.1845    0.0000 C   0  0  0  0  0  0  0  0  0  0  0  0
    4.4487   -0.8155    0.0000 C   0  0  0  0  0  0  0  0  0  0  0  0
    5.3147    0.6845    0.0000 C   0  0  0  0  0  0  0  0  0  0  0  0
    5.3147   -1.3155    0.0000 C   0  0  0  0  0  0  0  0  0  0  0  0
    6.1808    0.1845    0.0000 C   0  0  0  0  0  0  0  0  0  0  0  0
    6.1808   -0.8155    0.0000 C   0  0  0  0  0  0  0  0  0  0  0  0
    7.0468   -1.3155    0.0000 C   0  0  0  0  0  0  0  0  0  0  0  0
    7.9128   -2.8155    0.0000 C   0  0  0  0  0  0  0  0  0  0  0  0
    8.7788   -2.3155    0.0000 C   0  0  0  0  0  0  0  0  0  0  0  0
    7.9128   -3.8155    0.0000 C   0  0  0  0  0  0  0  0  0  0  0  0
    9.6448   -2.8155    0.0000 C   0  0  0  0  0  0  0  0  0  0  0  0
    9.6448   -3.8155    0.0000 C   0  0  0  0  0  0  0  0  0  0  0  0
   10.5109   -2.3155    0.0000 C   0  0  0  0  0  0  0  0  0  0  0  0
   11.3769   -2.8155    0.0000 C   0  0  0  0  0  0  0  0  0  0  0  0
   11.3769   -0.8155    0.0000 C   0  0  0  0  0  0  0  0  0  0  0  0
   12.2429   -1.3155    0.0000 C   0  0  0  0  0  0  0  0  0  0  0  0
   12.2429    0.6845    0.0000 C   0  0  0  0  0  0  0  0  0  0  0  0
    4.0570    1.4568    0.0000 H   0  0  0  0  0  0  0  0  0  0  0  0
    4.5498    1.8224    0.0000 H   0  0  0  0  0  0  0  0  0  0  0  0
    4.7962    2.5804    0.0000 H   0  0  0  0  0  0  0  0  0  0  0  0
    2.6916    2.4766    0.0000 H   0  0  0  0  0  0  0  0  0  0  0  0
    1.9336    2.1391    0.0000 H   0  0  0  0  0  0  0  0  0  0  0  0
    1.4984    1.3854    0.0000 H   0  0  0  0  0  0  0  0  0  0  0  0
    1.5851    0.5602    0.0000 H   0  0  0  0  0  0  0  0  0  0  0  0
    2.1675   -0.0866    0.0000 H   0  0  0  0  0  0  0  0  0  0  0  0
    2.9791   -0.2592    0.0000 H   0  0  0  0  0  0  0  0  0  0  0  0
    5.0974    3.6087    0.0000 H   0  0  0  0  0  0  0  0  0  0  0  0
    5.1841    4.4339    0.0000 H   0  0  0  0  0  0  0  0  0  0  0  0
    2.4934    3.8620    0.0000 H   0  0  0  0  0  0  0  0  0  0  0  0
    2.9082    3.1434    0.0000 H   0  0  0  0  0  0  0  0  0  0  0  0
    4.7489    5.1877    0.0000 H   0  0  0  0  0  0  0  0  0  0  0  0
    3.9909    5.5251    0.0000 H   0  0  0  0  0  0  0  0  0  0  0  0
    3.1396    5.3442    0.0000 H   0  0  0  0  0  0  0  0  0  0  0  0
    2.5844    4.7276    0.0000 H   0  0  0  0  0  0  0  0  0  0  0  0
    3.9118   -1.1255    0.0000 H   0  0  0  0  0  0  0  0  0  0  0  0
    5.3147    1.3045    0.0000 H   0  0  0  0  0  0  0  0  0  0  0  0
    5.3147   -1.9355    0.0000 H   0  0  0  0  0  0  0  0  0  0  0  0
    6.7177    0.4945    0.0000 H   0  0  0  0  0  0  0  0  0  0  0  0
    6.5098   -2.6255    0.0000 H   0  0  0  0  0  0  0  0  0  0  0  0
    8.7788   -1.6955    0.0000 H   0  0  0  0  0  0  0  0  0  0  0  0
    8.7788   -4.9355    0.0000 H   0  0  0  0  0  0  0  0  0  0  0  0
   10.1818   -4.1255    0.0000 H   0  0  0  0  0  0  0  0  0  0  0  0
   11.3769   -3.4355    0.0000 H   0  0  0  0  0  0  0  0  0  0  0  0
   12.7799   -1.0055    0.0000 H   0  0  0  0  0  0  0  0  0  0  0  0
   10.8400    0.4945    0.0000 H   0  0  0  0  0  0  0  0  0  0  0  0
   12.5529    0.1476    0.0000 H   0  0  0  0  0  0  0  0  0  0  0  0
   12.7799    0.9945    0.0000 H   0  0  0  0  0  0  0  0  0  0  0  0
   11.9329    1.2214    0.0000 H   0  0  0  0  0  0  0  0  0  0  0  0
  1 25  2  0  0  0  0
  2 28  2  0  0  0  0
  3 10  1  0  0  0  0
  3 14  1  0  0  0  0
  3 19  1  0  0  0  0
  4 11  1  0  0  0  0
  4 15  1  0  0  0  0
  4 16  1  0  0  0  0
  5 25  1  0  0  0  0
  5 26  1  0  0  0  0
  5 57  1  0  0  0  0
  6 28  1  0  0  0  0
  6 30  1  0  0  0  0
  6 59  1  0  0  0  0
  7 31  1  0  0  0  0
  7 33  2  0  0  0  0
  8 32  1  0  0  0  0
  8 34  2  0  0  0  0
  9 33  1  0  0  0  0
  9 35  1  0  0  0  0
  9 63  1  0  0  0  0
 10 11  1  1  0  0  0
 10 12  1  0  0  0  0
 10 36  1  0  0  0  0
 11 37  1  0  0  0  0
 11 38  1  0  0  0  0
 12 13  1  0  0  0  0
 12 39  1  0  0  0  0
 12 40  1  0  0  0  0
 13 14  1  0  0  0  0
 13 41  1  0  0  0  0
 13 42  1  0  0  0  0
 14 43  1  0  0  0  0
 14 44  1  0  0  0  0
 15 17  1  0  0  0  0
 15 45  1  0  0  0  0
 15 46  1  0  0  0  0
 16 18  1  0  0  0  0
 16 47  1  0  0  0  0
 16 48  1  0  0  0  0
 17 18  1  0  0  0  0
 17 49  1  0  0  0  0
 17 50  1  0  0  0  0
 18 51  1  0  0  0  0
 18 52  1  0  0  0  0
 19 20  2  0  0  0  0
 19 21  1  0  0  0  0
 20 22  1  0  0  0  0
 20 53  1  0  0  0  0
 21 23  2  0  0  0  0
 21 54  1  0  0  0  0
 22 24  2  0  0  0  0
 22 55  1  0  0  0  0
 23 24  1  0  0  0  0
 23 56  1  0  0  0  0
 24 25  1  0  0  0  0
 26 27  2  0  0  0  0
 26 28  1  0  0  0  0
 27 29  1  0  0  0  0
 27 58  1  0  0  0  0
 29 30  2  0  0  0  0
 29 31  1  0  0  0  0
 30 60  1  0  0  0  0
 31 32  2  0  0  0  0
 32 61  1  0  0  0  0
 33 34  1  0  0  0  0
 34 62  1  0  0  0  0
 35 64  1  0  0  0  0
 35 65  1  0  0  0  0
 35 66  1  0  0  0  0
M  END
> <PUBCHEM_COMPOUND_CID>
52936621

> <PUBCHEM_COMPOUND_CANONICALIZED>
1

> <PUBCHEM_CACTVS_COMPLEXITY>
830

> <PUBCHEM_CACTVS_HBOND_ACCEPTOR>
7

> <PUBCHEM_CACTVS_HBOND_DONOR>
3

> <PUBCHEM_CACTVS_ROTATABLE_BOND>
7

> <PUBCHEM_CACTVS_SUBSKEYS>
AAADceB7sAAAAAAAAAAAAAAAAAAAAWLAAAA8QIAAAAAAAAABwAAAHgAQAAAADCjBngQ/8JPIEACoAzd3dACCgC01EiAJ2IG4dNiIYHLAlbGUIQholgLIyacYiQCeCAAAAAAAAAAQAAAAAAAAAAAAAAAAAA==

> <PUBCHEM_IUPAC_OPENEYE_NAME>
N-[5-[6-(methylamino)pyrazin-2-yl]-2-oxo-1H-pyridin-3-yl]-4-[(2S)-2-(pyrrolidin-1-ylmethyl)pyrrolidin-1-yl]benzamide

> <PUBCHEM_IUPAC_CAS_NAME>
N-[5-[6-(methylamino)-2-pyrazinyl]-2-oxo-1H-pyridin-3-yl]-4-[(2S)-2-(1-pyrrolidinylmethyl)-1-pyrrolidinyl]benzamide

> <PUBCHEM_IUPAC_NAME_MARKUP>
<I>N</I>-[5-[6-(methylamino)pyrazin-2-yl]-2-oxo-1<I>H</I>-pyridin-3-yl]-4-[(2<I>S</I>)-2-(pyrrolidin-1-ylmethyl)pyrrolidin-1-yl]benzamide

> <PUBCHEM_IUPAC_NAME>
N-[5-[6-(methylamino)pyrazin-2-yl]-2-oxo-1H-pyridin-3-yl]-4-[(2S)-2-(pyrrolidin-1-ylmethyl)pyrrolidin-1-yl]benzamide

> <PUBCHEM_IUPAC_SYSTEMATIC_NAME>
N-[5-[6-(methylamino)pyrazin-2-yl]-2-oxidanylidene-1H-pyridin-3-yl]-4-[(2S)-2-(pyrrolidin-1-ylmethyl)pyrrolidin-1-yl]benzamide

> <PUBCHEM_IUPAC_TRADITIONAL_NAME>
N-[2-keto-5-[6-(methylamino)pyrazin-2-yl]-1H-pyridin-3-yl]-4-[(2S)-2-(pyrrolidinomethyl)pyrrolidino]benzamide

> <PUBCHEM_IUPAC_INCHI>
InChI=1S/C26H31N7O2/c1-27-24-16-28-15-23(30-24)19-13-22(26(35)29-14-19)31-25(34)18-6-8-20(9-7-18)33-12-4-5-21(33)17-32-10-2-3-11-32/h6-9,13-16,21H,2-5,10-12,17H2,1H3,(H,27,30)(H,29,35)(H,31,34)/t21-/m0/s1

> <PUBCHEM_IUPAC_INCHIKEY>
CMOPUHDFFUAOMA-NRFANRHFSA-N

> <PUBCHEM_XLOGP3_AA>
1.8

> <PUBCHEM_EXACT_MASS>
473.25392326

> <PUBCHEM_MOLECULAR_FORMULA>
C26H31N7O2

> <PUBCHEM_MOLECULAR_WEIGHT>
473.6

> <PUBCHEM_SMILES>
CNC1=NC(=CN=C1)C2=CNC(=O)C(=C2)NC(=O)C3=CC=C(C=C3)N4CCC[C@H]4CN5CCCC5

> <PUBCHEM_OPENEYE_CAN_SMILES>
CNC1=NC(=CN=C1)C2=CNC(=O)C(=C2)NC(=O)C3=CC=C(C=C3)N4CCCC4CN5CCCC5

> <PUBCHEM_OPENEYE_ISO_SMILES>
CNC1=NC(=CN=C1)C2=CNC(=O)C(=C2)NC(=O)C3=CC=C(C=C3)N4CCC[C@H]4CN5CCCC5

> <PUBCHEM_CACTVS_TPSA>
102

> <PUBCHEM_MONOISOTOPIC_WEIGHT>
473.25392326

> <PUBCHEM_TOTAL_CHARGE>
0

> <PUBCHEM_HEAVY_ATOM_COUNT>
35

> <PUBCHEM_ATOM_DEF_STEREO_COUNT>
1

> <PUBCHEM_ATOM_UDEF_STEREO_COUNT>
0

> <PUBCHEM_BOND_DEF_STEREO_COUNT>
0

> <PUBCHEM_BOND_UDEF_STEREO_COUNT>
0

> <PUBCHEM_ISOTOPIC_ATOM_COUNT>
0

> <PUBCHEM_COMPONENT_COUNT>
1

> <PUBCHEM_CACTVS_TAUTO_COUNT>
-1

> <PUBCHEM_COORDINATE_TYPE>
1
5
255

> <PUBCHEM_BONDANNOTATIONS>
10  11  5
19  20  8
19  21  8
20  22  8
21  23  8
22  24  8
23  24  8
26  27  8
26  28  8
27  29  8
29  30  8
31  32  8
33  34  8
6  28  8
6  30  8
7  31  8
7  33  8
8  32  8
8  34  8

$$$$
