44414347
  -OEChem-03202504462D

 47 51  0     0  0  0  0  0  0999 V2000
   12.0666    0.0436    0.0000 S   0  0  0  0  0  0  0  0  0  0  0  0
    4.0160    0.4391    0.0000 N   0  0  0  0  0  0  0  0  0  0  0  0
    2.6720    1.9202    0.0000 N   0  0  0  0  0  0  0  0  0  0  0  0
    8.5023   -2.1586    0.0000 N   0  0  0  0  0  0  0  0  0  0  0  0
    9.4964   -2.1577    0.0000 N   0  0  0  0  0  0  0  0  0  0  0  0
    3.0386    0.2275    0.0000 C   0  0  0  0  0  0  0  0  0  0  0  0
    4.3213    1.3914    0.0000 C   0  0  0  0  0  0  0  0  0  0  0  0
    4.6880   -0.3014    0.0000 C   0  0  0  0  0  0  0  0  0  0  0  0
    2.3666    0.9680    0.0000 C   0  0  0  0  0  0  0  0  0  0  0  0
    3.6493    2.1319    0.0000 C   0  0  0  0  0  0  0  0  0  0  0  0
    7.3836   -0.6262    0.0000 C   0  0  0  0  0  0  0  0  0  0  0  0
    5.6653   -0.0897    0.0000 C   0  0  0  0  0  0  0  0  0  0  0  0
    7.6927    0.3249    0.0000 C   0  0  0  0  0  0  0  0  0  0  0  0
    8.6927    0.3249    0.0000 C   0  0  0  0  0  0  0  0  0  0  0  0
    9.0017   -0.6262    0.0000 C   0  0  0  0  0  0  0  0  0  0  0  0
    8.1927   -1.2140    0.0000 C   0  0  0  0  0  0  0  0  0  0  0  0
    6.3682   -0.8584    0.0000 C   0  0  0  0  0  0  0  0  0  0  0  0
    5.9872    0.9009    0.0000 C   0  0  0  0  0  0  0  0  0  0  0  0
    7.0077    1.1096    0.0000 C   0  0  0  0  0  0  0  0  0  0  0  0
    9.8044   -1.2126    0.0000 C   0  0  0  0  0  0  0  0  0  0  0  0
    2.0000    2.6608    0.0000 C   0  0  0  0  0  0  0  0  0  0  0  0
   10.7560   -0.9052    0.0000 C   0  0  0  0  0  0  0  0  0  0  0  0
   11.5640   -1.4944    0.0000 C   0  0  0  0  0  0  0  0  0  0  0  0
   11.0666    0.0453    0.0000 C   0  0  0  0  0  0  0  0  0  0  0  0
   12.3740   -0.9080    0.0000 C   0  0  0  0  0  0  0  0  0  0  0  0
    2.5141   -0.1031    0.0000 H   0  0  0  0  0  0  0  0  0  0  0  0
    3.2731   -0.3465    0.0000 H   0  0  0  0  0  0  0  0  0  0  0  0
    4.8699    1.1024    0.0000 H   0  0  0  0  0  0  0  0  0  0  0  0
    4.7011    1.8814    0.0000 H   0  0  0  0  0  0  0  0  0  0  0  0
    4.1634   -0.6320    0.0000 H   0  0  0  0  0  0  0  0  0  0  0  0
    4.9224   -0.8754    0.0000 H   0  0  0  0  0  0  0  0  0  0  0  0
    1.8181    1.2570    0.0000 H   0  0  0  0  0  0  0  0  0  0  0  0
    1.9868    0.4780    0.0000 H   0  0  0  0  0  0  0  0  0  0  0  0
    4.1738    2.4625    0.0000 H   0  0  0  0  0  0  0  0  0  0  0  0
    3.4149    2.7059    0.0000 H   0  0  0  0  0  0  0  0  0  0  0  0
    9.2991    0.4538    0.0000 H   0  0  0  0  0  0  0  0  0  0  0  0
    8.6278    0.9415    0.0000 H   0  0  0  0  0  0  0  0  0  0  0  0
    6.1835   -1.4503    0.0000 H   0  0  0  0  0  0  0  0  0  0  0  0
    5.5741    1.3632    0.0000 H   0  0  0  0  0  0  0  0  0  0  0  0
    7.2061    1.6970    0.0000 H   0  0  0  0  0  0  0  0  0  0  0  0
    2.4592    3.0774    0.0000 H   0  0  0  0  0  0  0  0  0  0  0  0
    1.5834    3.1200    0.0000 H   0  0  0  0  0  0  0  0  0  0  0  0
    1.5408    2.2442    0.0000 H   0  0  0  0  0  0  0  0  0  0  0  0
    8.1387   -2.6608    0.0000 H   0  0  0  0  0  0  0  0  0  0  0  0
   11.5629   -2.1144    0.0000 H   0  0  0  0  0  0  0  0  0  0  0  0
   10.7031    0.5475    0.0000 H   0  0  0  0  0  0  0  0  0  0  0  0
   12.9633   -1.1006    0.0000 H   0  0  0  0  0  0  0  0  0  0  0  0
  1 24  1  0  0  0  0
  1 25  1  0  0  0  0
  2  6  1  0  0  0  0
  2  7  1  0  0  0  0
  2  8  1  0  0  0  0
  3  9  1  0  0  0  0
  3 10  1  0  0  0  0
  3 21  1  0  0  0  0
  4  5  1  0  0  0  0
  4 16  1  0  0  0  0
  4 44  1  0  0  0  0
  5 20  2  0  0  0  0
  6  9  1  0  0  0  0
  6 26  1  0  0  0  0
  6 27  1  0  0  0  0
  7 10  1  0  0  0  0
  7 28  1  0  0  0  0
  7 29  1  0  0  0  0
  8 12  1  0  0  0  0
  8 30  1  0  0  0  0
  8 31  1  0  0  0  0
  9 32  1  0  0  0  0
  9 33  1  0  0  0  0
 10 34  1  0  0  0  0
 10 35  1  0  0  0  0
 11 13  2  0  0  0  0
 11 16  1  0  0  0  0
 11 17  1  0  0  0  0
 12 17  2  0  0  0  0
 12 18  1  0  0  0  0
 13 14  1  0  0  0  0
 13 19  1  0  0  0  0
 14 15  1  0  0  0  0
 14 36  1  0  0  0  0
 14 37  1  0  0  0  0
 15 16  2  0  0  0  0
 15 20  1  0  0  0  0
 17 38  1  0  0  0  0
 18 19  2  0  0  0  0
 18 39  1  0  0  0  0
 19 40  1  0  0  0  0
 20 22  1  0  0  0  0
 21 41  1  0  0  0  0
 21 42  1  0  0  0  0
 21 43  1  0  0  0  0
 22 23  1  0  0  0  0
 22 24  2  0  0  0  0
 23 25  2  0  0  0  0
 23 45  1  0  0  0  0
 24 46  1  0  0  0  0
 25 47  1  0  0  0  0
M  END
> <PUBCHEM_COMPOUND_CID>
44414347

> <PUBCHEM_COMPOUND_CANONICALIZED>
1

> <PUBCHEM_CACTVS_COMPLEXITY>
467

> <PUBCHEM_CACTVS_HBOND_ACCEPTOR>
4

> <PUBCHEM_CACTVS_HBOND_DONOR>
1

> <PUBCHEM_CACTVS_ROTATABLE_BOND>
3

> <PUBCHEM_CACTVS_SUBSKEYS>
AAADceB7gABAAAAAAAAAAAAAAAAAAeJEAAA8QAAAAAAWAGAB8AAAHAQYAAAADAjFXgSygZNjAAimAyRiQACTBIAgCBBYuTgoRJgIYKKg0dGUpAhgiACoyAcQgMAOwAACAAAQAACAAAQAACAAASAACQAAAA==

> <PUBCHEM_IUPAC_OPENEYE_NAME>
7-[(4-methylpiperazin-1-yl)methyl]-3-(3-thienyl)-1,4-dihydroindeno[1,2-c]pyrazole

> <PUBCHEM_IUPAC_CAS_NAME>
7-[(4-methyl-1-piperazinyl)methyl]-3-(3-thiophenyl)-1,4-dihydroindeno[1,2-c]pyrazole

> <PUBCHEM_IUPAC_NAME_MARKUP>
7-[(4-methylpiperazin-1-yl)methyl]-3-thiophen-3-yl-1,4-dihydroindeno[1,2-c]pyrazole

> <PUBCHEM_IUPAC_NAME>
7-[(4-methylpiperazin-1-yl)methyl]-3-thiophen-3-yl-1,4-dihydroindeno[1,2-c]pyrazole

> <PUBCHEM_IUPAC_SYSTEMATIC_NAME>
7-[(4-methylpiperazin-1-yl)methyl]-3-thiophen-3-yl-1,4-dihydroindeno[1,2-c]pyrazole

> <PUBCHEM_IUPAC_TRADITIONAL_NAME>
7-[(4-methylpiperazino)methyl]-3-(3-thienyl)-1,4-dihydroindeno[1,2-c]pyrazole

> <PUBCHEM_IUPAC_INCHI>
InChI=1S/C20H22N4S/c1-23-5-7-24(8-6-23)12-14-2-3-15-11-18-19(16-4-9-25-13-16)21-22-20(18)17(15)10-14/h2-4,9-10,13H,5-8,11-12H2,1H3,(H,21,22)

> <PUBCHEM_IUPAC_INCHIKEY>
OLLCPXMBOYVHAF-UHFFFAOYSA-N

> <PUBCHEM_XLOGP3_AA>
2.9

> <PUBCHEM_EXACT_MASS>
350.15651789

> <PUBCHEM_MOLECULAR_FORMULA>
C20H22N4S

> <PUBCHEM_MOLECULAR_WEIGHT>
350.5

> <PUBCHEM_SMILES>
CN1CCN(CC1)CC2=CC3=C(CC4=C3NN=C4C5=CSC=C5)C=C2

> <PUBCHEM_OPENEYE_CAN_SMILES>
CN1CCN(CC1)CC2=CC3=C(CC4=C3NN=C4C5=CSC=C5)C=C2

> <PUBCHEM_OPENEYE_ISO_SMILES>
CN1CCN(CC1)CC2=CC3=C(CC4=C3NN=C4C5=CSC=C5)C=C2

> <PUBCHEM_CACTVS_TPSA>
63.4

> <PUBCHEM_MONOISOTOPIC_WEIGHT>
350.15651789

> <PUBCHEM_TOTAL_CHARGE>
0

> <PUBCHEM_HEAVY_ATOM_COUNT>
25

> <PUBCHEM_ATOM_DEF_STEREO_COUNT>
0

> <PUBCHEM_ATOM_UDEF_STEREO_COUNT>
0

> <PUBCHEM_BOND_DEF_STEREO_COUNT>
0

> <PUBCHEM_BOND_UDEF_STEREO_COUNT>
0

> <PUBCHEM_ISOTOPIC_ATOM_COUNT>
0

> <PUBCHEM_COMPONENT_COUNT>
1

> <PUBCHEM_CACTVS_TAUTO_COUNT>
-1

> <PUBCHEM_COORDINATE_TYPE>
1
5
255

> <PUBCHEM_BONDANNOTATIONS>
1  24  8
1  25  8
11  13  8
11  17  8
12  17  8
12  18  8
13  19  8
15  16  8
15  20  8
18  19  8
22  23  8
22  24  8
23  25  8
4  16  8
4  5  8
5  20  8

$$$$
