11755812
  -OEChem-03192523172D

 57 61  0     0  0  0  0  0  0999 V2000
    4.0000    6.2500    0.0000 F   0  0  0  0  0  0  0  0  0  0  0  0
    3.0000    7.2500    0.0000 F   0  0  0  0  0  0  0  0  0  0  0  0
    2.0000    6.2500    0.0000 F   0  0  0  0  0  0  0  0  0  0  0  0
    3.8660    1.7500    0.0000 O   0  0  0  0  0  0  0  0  0  0  0  0
    9.0622   -1.2500    0.0000 N   0  0  0  0  0  0  0  0  0  0  0  0
    8.1962   -3.7500    0.0000 N   0  0  0  0  0  0  0  0  0  0  0  0
    7.3301   -2.2500    0.0000 N   0  0  0  0  0  0  0  0  0  0  0  0
   10.0084   -2.5547    0.0000 N   0  0  0  0  0  0  0  0  0  0  0  0
    5.5981    1.7500    0.0000 N   0  0  0  0  0  0  0  0  0  0  0  0
    4.7320    3.2500    0.0000 N   0  0  0  0  0  0  0  0  0  0  0  0
    7.3301   -7.2500    0.0000 N   0  0  0  0  0  0  0  0  0  0  0  0
    9.0622   -2.2500    0.0000 C   0  0  0  0  0  0  0  0  0  0  0  0
    7.3301   -1.2500    0.0000 C   0  0  0  0  0  0  0  0  0  0  0  0
    8.1962   -2.7500    0.0000 C   0  0  0  0  0  0  0  0  0  0  0  0
    6.4641   -0.7500    0.0000 C   0  0  0  0  0  0  0  0  0  0  0  0
    8.1962   -0.7500    0.0000 C   0  0  0  0  0  0  0  0  0  0  0  0
    7.3301   -4.2500    0.0000 C   0  0  0  0  0  0  0  0  0  0  0  0
   10.0084   -0.9453    0.0000 C   0  0  0  0  0  0  0  0  0  0  0  0
    6.4641    0.2500    0.0000 C   0  0  0  0  0  0  0  0  0  0  0  0
    5.5981    0.7500    0.0000 C   0  0  0  0  0  0  0  0  0  0  0  0
    5.5981   -1.2500    0.0000 C   0  0  0  0  0  0  0  0  0  0  0  0
   10.5920   -1.7500    0.0000 C   0  0  0  0  0  0  0  0  0  0  0  0
    7.3301   -5.2500    0.0000 C   0  0  0  0  0  0  0  0  0  0  0  0
    4.7320    0.2500    0.0000 C   0  0  0  0  0  0  0  0  0  0  0  0
    4.7320   -0.7500    0.0000 C   0  0  0  0  0  0  0  0  0  0  0  0
    6.4641   -5.7500    0.0000 C   0  0  0  0  0  0  0  0  0  0  0  0
    8.1962   -5.7500    0.0000 C   0  0  0  0  0  0  0  0  0  0  0  0
    3.8660    3.7500    0.0000 C   0  0  0  0  0  0  0  0  0  0  0  0
    4.7320    2.2500    0.0000 C   0  0  0  0  0  0  0  0  0  0  0  0
    3.0000    5.2500    0.0000 C   0  0  0  0  0  0  0  0  0  0  0  0
    3.8660    4.7500    0.0000 C   0  0  0  0  0  0  0  0  0  0  0  0
    3.0000    3.2500    0.0000 C   0  0  0  0  0  0  0  0  0  0  0  0
    2.1340    4.7500    0.0000 C   0  0  0  0  0  0  0  0  0  0  0  0
    6.4641   -6.7500    0.0000 C   0  0  0  0  0  0  0  0  0  0  0  0
    8.1962   -6.7500    0.0000 C   0  0  0  0  0  0  0  0  0  0  0  0
    2.1340    3.7500    0.0000 C   0  0  0  0  0  0  0  0  0  0  0  0
    3.0000    6.2500    0.0000 C   0  0  0  0  0  0  0  0  0  0  0  0
    8.1962   -0.1300    0.0000 H   0  0  0  0  0  0  0  0  0  0  0  0
    8.7331   -4.0600    0.0000 H   0  0  0  0  0  0  0  0  0  0  0  0
    7.1181   -3.6674    0.0000 H   0  0  0  0  0  0  0  0  0  0  0  0
    6.7196   -4.3577    0.0000 H   0  0  0  0  0  0  0  0  0  0  0  0
   10.2010   -0.3559    0.0000 H   0  0  0  0  0  0  0  0  0  0  0  0
    7.0010    0.5600    0.0000 H   0  0  0  0  0  0  0  0  0  0  0  0
    5.5981   -1.8700    0.0000 H   0  0  0  0  0  0  0  0  0  0  0  0
   11.2120   -1.7500    0.0000 H   0  0  0  0  0  0  0  0  0  0  0  0
    4.1951    0.5600    0.0000 H   0  0  0  0  0  0  0  0  0  0  0  0
    4.1951   -1.0600    0.0000 H   0  0  0  0  0  0  0  0  0  0  0  0
    6.1350    2.0600    0.0000 H   0  0  0  0  0  0  0  0  0  0  0  0
    5.9272   -5.4400    0.0000 H   0  0  0  0  0  0  0  0  0  0  0  0
    8.7331   -5.4400    0.0000 H   0  0  0  0  0  0  0  0  0  0  0  0
    5.2690    3.5600    0.0000 H   0  0  0  0  0  0  0  0  0  0  0  0
    4.4030    5.0600    0.0000 H   0  0  0  0  0  0  0  0  0  0  0  0
    3.0000    2.6300    0.0000 H   0  0  0  0  0  0  0  0  0  0  0  0
    1.5970    5.0600    0.0000 H   0  0  0  0  0  0  0  0  0  0  0  0
    1.5970    3.4400    0.0000 H   0  0  0  0  0  0  0  0  0  0  0  0
    5.9272   -7.0600    0.0000 H   0  0  0  0  0  0  0  0  0  0  0  0
    8.7331   -7.0600    0.0000 H   0  0  0  0  0  0  0  0  0  0  0  0
  1 37  1  0  0  0  0
  2 37  1  0  0  0  0
  3 37  1  0  0  0  0
  4 29  2  0  0  0  0
  5 12  1  0  0  0  0
  5 16  1  0  0  0  0
  5 18  1  0  0  0  0
  6 14  1  0  0  0  0
  6 17  1  0  0  0  0
  6 39  1  0  0  0  0
  7 13  1  0  0  0  0
  7 14  2  0  0  0  0
  8 12  2  0  0  0  0
  8 22  1  0  0  0  0
  9 20  1  0  0  0  0
  9 29  1  0  0  0  0
  9 48  1  0  0  0  0
 10 28  1  0  0  0  0
 10 29  1  0  0  0  0
 10 51  1  0  0  0  0
 11 34  2  0  0  0  0
 11 35  1  0  0  0  0
 12 14  1  0  0  0  0
 13 15  1  0  0  0  0
 13 16  2  0  0  0  0
 15 19  2  0  0  0  0
 15 21  1  0  0  0  0
 16 38  1  0  0  0  0
 17 23  1  0  0  0  0
 17 40  1  0  0  0  0
 17 41  1  0  0  0  0
 18 22  2  0  0  0  0
 18 42  1  0  0  0  0
 19 20  1  0  0  0  0
 19 43  1  0  0  0  0
 20 24  2  0  0  0  0
 21 25  2  0  0  0  0
 21 44  1  0  0  0  0
 22 45  1  0  0  0  0
 23 26  2  0  0  0  0
 23 27  1  0  0  0  0
 24 25  1  0  0  0  0
 24 46  1  0  0  0  0
 25 47  1  0  0  0  0
 26 34  1  0  0  0  0
 26 49  1  0  0  0  0
 27 35  2  0  0  0  0
 27 50  1  0  0  0  0
 28 31  1  0  0  0  0
 28 32  2  0  0  0  0
 30 31  2  0  0  0  0
 30 33  1  0  0  0  0
 30 37  1  0  0  0  0
 31 52  1  0  0  0  0
 32 36  1  0  0  0  0
 32 53  1  0  0  0  0
 33 36  2  0  0  0  0
 33 54  1  0  0  0  0
 34 56  1  0  0  0  0
 35 57  1  0  0  0  0
 36 55  1  0  0  0  0
M  END
> <PUBCHEM_COMPOUND_CID>
11755812

> <PUBCHEM_COMPOUND_CANONICALIZED>
1

> <PUBCHEM_CACTVS_COMPLEXITY>
750

> <PUBCHEM_CACTVS_HBOND_ACCEPTOR>
8

> <PUBCHEM_CACTVS_HBOND_DONOR>
3

> <PUBCHEM_CACTVS_ROTATABLE_BOND>
6

> <PUBCHEM_CACTVS_SUBSKEYS>
AAADceB7oYAAAAAAAAAAAAAAAAAAAWAAAAA8eIEAAAAAAFgB/AAAHwAQAAAADAjBHxQ98J/MGACoAzZndACCgC0xEqAJ2KA4dJiIaOLAmZGUIAholALIyCcQgIAOAAAAQAAAAAAAAACAAAAAAAAAAAAAAA==

> <PUBCHEM_IUPAC_OPENEYE_NAME>
1-[3-[8-(4-pyridylmethylamino)imidazo[1,2-a]pyrazin-6-yl]phenyl]-3-[3-(trifluoromethyl)phenyl]urea

> <PUBCHEM_IUPAC_CAS_NAME>
1-[3-[8-(pyridin-4-ylmethylamino)-6-imidazo[1,2-a]pyrazinyl]phenyl]-3-[3-(trifluoromethyl)phenyl]urea

> <PUBCHEM_IUPAC_NAME_MARKUP>
1-[3-[8-(pyridin-4-ylmethylamino)imidazo[1,2-a]pyrazin-6-yl]phenyl]-3-[3-(trifluoromethyl)phenyl]urea

> <PUBCHEM_IUPAC_NAME>
1-[3-[8-(pyridin-4-ylmethylamino)imidazo[1,2-a]pyrazin-6-yl]phenyl]-3-[3-(trifluoromethyl)phenyl]urea

> <PUBCHEM_IUPAC_SYSTEMATIC_NAME>
1-[3-[8-(pyridin-4-ylmethylamino)imidazo[1,2-a]pyrazin-6-yl]phenyl]-3-[3-(trifluoromethyl)phenyl]urea

> <PUBCHEM_IUPAC_TRADITIONAL_NAME>
1-[3-[8-(4-pyridylmethylamino)imidazo[1,2-a]pyrazin-6-yl]phenyl]-3-[3-(trifluoromethyl)phenyl]urea

> <PUBCHEM_IUPAC_INCHI>
InChI=1S/C26H20F3N7O/c27-26(28,29)19-4-2-6-21(14-19)34-25(37)33-20-5-1-3-18(13-20)22-16-36-12-11-31-24(36)23(35-22)32-15-17-7-9-30-10-8-17/h1-14,16H,15H2,(H,32,35)(H2,33,34,37)

> <PUBCHEM_IUPAC_INCHIKEY>
NWEIPABWNQPRCZ-UHFFFAOYSA-N

> <PUBCHEM_XLOGP3_AA>
4.5

> <PUBCHEM_EXACT_MASS>
503.16814277

> <PUBCHEM_MOLECULAR_FORMULA>
C26H20F3N7O

> <PUBCHEM_MOLECULAR_WEIGHT>
503.5

> <PUBCHEM_SMILES>
C1=CC(=CC(=C1)NC(=O)NC2=CC=CC(=C2)C(F)(F)F)C3=CN4C=CN=C4C(=N3)NCC5=CC=NC=C5

> <PUBCHEM_OPENEYE_CAN_SMILES>
C1=CC(=CC(=C1)NC(=O)NC2=CC=CC(=C2)C(F)(F)F)C3=CN4C=CN=C4C(=N3)NCC5=CC=NC=C5

> <PUBCHEM_OPENEYE_ISO_SMILES>
C1=CC(=CC(=C1)NC(=O)NC2=CC=CC(=C2)C(F)(F)F)C3=CN4C=CN=C4C(=N3)NCC5=CC=NC=C5

> <PUBCHEM_CACTVS_TPSA>
96.2

> <PUBCHEM_MONOISOTOPIC_WEIGHT>
503.16814277

> <PUBCHEM_TOTAL_CHARGE>
0

> <PUBCHEM_HEAVY_ATOM_COUNT>
37

> <PUBCHEM_ATOM_DEF_STEREO_COUNT>
0

> <PUBCHEM_ATOM_UDEF_STEREO_COUNT>
0

> <PUBCHEM_BOND_DEF_STEREO_COUNT>
0

> <PUBCHEM_BOND_UDEF_STEREO_COUNT>
0

> <PUBCHEM_ISOTOPIC_ATOM_COUNT>
0

> <PUBCHEM_COMPONENT_COUNT>
1

> <PUBCHEM_CACTVS_TAUTO_COUNT>
-1

> <PUBCHEM_COORDINATE_TYPE>
1
5
255

> <PUBCHEM_BONDANNOTATIONS>
11  34  8
11  35  8
12  14  8
13  16  8
15  19  8
15  21  8
18  22  8
19  20  8
20  24  8
21  25  8
23  26  8
23  27  8
24  25  8
26  34  8
27  35  8
28  31  8
28  32  8
30  31  8
30  33  8
32  36  8
33  36  8
5  12  8
5  16  8
5  18  8
7  13  8
7  14  8
8  12  8
8  22  8

$$$$
