24905154
  -OEChem-03192523502D

 46 49  0     0  0  0  0  0  0999 V2000
    9.2878    2.2604    0.0000 S   0  0  0  0  0  0  0  0  0  0  0  0
    7.9244    1.0298    0.0000 O   0  0  0  0  0  0  0  0  0  0  0  0
    4.6783   -2.1488    0.0000 N   0  0  0  0  0  0  0  0  0  0  0  0
    5.2619   -1.3441    0.0000 N   0  0  0  0  0  0  0  0  0  0  0  0
    2.8660   -2.3441    0.0000 N   0  0  0  0  0  0  0  0  0  0  0  0
    2.0000   -0.8441    0.0000 N   0  0  0  0  0  0  0  0  0  0  0  0
    2.8660    0.6559    0.0000 N   0  0  0  0  0  0  0  0  0  0  0  0
    7.5673    2.7246    0.0000 N   0  0  0  0  0  0  0  0  0  0  0  0
    8.9541    3.8437    0.0000 N   0  0  0  0  0  0  0  0  0  0  0  0
    4.9889   -3.0994    0.0000 C   0  0  0  0  0  0  0  0  0  0  0  0
    3.7320   -1.8441    0.0000 C   0  0  0  0  0  0  0  0  0  0  0  0
    3.7320   -0.8441    0.0000 C   0  0  0  0  0  0  0  0  0  0  0  0
    4.6783   -0.5394    0.0000 C   0  0  0  0  0  0  0  0  0  0  0  0
    4.9889    0.4111    0.0000 C   0  0  0  0  0  0  0  0  0  0  0  0
    5.9674   -3.3056    0.0000 C   0  0  0  0  0  0  0  0  0  0  0  0
    4.3211   -3.8437    0.0000 C   0  0  0  0  0  0  0  0  0  0  0  0
    2.8660   -0.3441    0.0000 C   0  0  0  0  0  0  0  0  0  0  0  0
    5.9674    0.6174    0.0000 C   0  0  0  0  0  0  0  0  0  0  0  0
    4.3211    1.1554    0.0000 C   0  0  0  0  0  0  0  0  0  0  0  0
    6.2781    1.5679    0.0000 C   0  0  0  0  0  0  0  0  0  0  0  0
    4.6318    2.1060    0.0000 C   0  0  0  0  0  0  0  0  0  0  0  0
    5.6103    2.3122    0.0000 C   0  0  0  0  0  0  0  0  0  0  0  0
    2.0000   -1.8441    0.0000 C   0  0  0  0  0  0  0  0  0  0  0  0
    7.2566    1.7741    0.0000 C   0  0  0  0  0  0  0  0  0  0  0  0
    8.5458    2.9308    0.0000 C   0  0  0  0  0  0  0  0  0  0  0  0
   10.1547    2.7589    0.0000 C   0  0  0  0  0  0  0  0  0  0  0  0
    9.9484    3.7374    0.0000 C   0  0  0  0  0  0  0  0  0  0  0  0
    5.1815   -3.6887    0.0000 H   0  0  0  0  0  0  0  0  0  0  0  0
    5.8396   -3.9123    0.0000 H   0  0  0  0  0  0  0  0  0  0  0  0
    6.5741   -3.4334    0.0000 H   0  0  0  0  0  0  0  0  0  0  0  0
    6.0953   -2.6989    0.0000 H   0  0  0  0  0  0  0  0  0  0  0  0
    3.8596   -3.4296    0.0000 H   0  0  0  0  0  0  0  0  0  0  0  0
    3.9070   -4.3051    0.0000 H   0  0  0  0  0  0  0  0  0  0  0  0
    4.7826   -4.2577    0.0000 H   0  0  0  0  0  0  0  0  0  0  0  0
    6.3815    0.1559    0.0000 H   0  0  0  0  0  0  0  0  0  0  0  0
    3.7144    1.0276    0.0000 H   0  0  0  0  0  0  0  0  0  0  0  0
    4.2177    2.5674    0.0000 H   0  0  0  0  0  0  0  0  0  0  0  0
    5.8029    2.9015    0.0000 H   0  0  0  0  0  0  0  0  0  0  0  0
    1.4631   -2.1541    0.0000 H   0  0  0  0  0  0  0  0  0  0  0  0
    2.3291    0.9659    0.0000 H   0  0  0  0  0  0  0  0  0  0  0  0
    3.4030    0.9659    0.0000 H   0  0  0  0  0  0  0  0  0  0  0  0
    7.1532    3.1861    0.0000 H   0  0  0  0  0  0  0  0  0  0  0  0
   10.4058    2.1921    0.0000 H   0  0  0  0  0  0  0  0  0  0  0  0
   10.7446    2.9495    0.0000 H   0  0  0  0  0  0  0  0  0  0  0  0
   10.5651    3.8012    0.0000 H   0  0  0  0  0  0  0  0  0  0  0  0
    9.9495    4.3574    0.0000 H   0  0  0  0  0  0  0  0  0  0  0  0
  1 25  1  0  0  0  0
  1 26  1  0  0  0  0
  2 24  2  0  0  0  0
  3  4  1  0  0  0  0
  3 10  1  0  0  0  0
  3 11  1  0  0  0  0
  4 13  2  0  0  0  0
  5 11  2  0  0  0  0
  5 23  1  0  0  0  0
  6 17  1  0  0  0  0
  6 23  2  0  0  0  0
  7 17  1  0  0  0  0
  7 40  1  0  0  0  0
  7 41  1  0  0  0  0
  8 24  1  0  0  0  0
  8 25  1  0  0  0  0
  8 42  1  0  0  0  0
  9 25  2  0  0  0  0
  9 27  1  0  0  0  0
 10 15  1  0  0  0  0
 10 16  1  0  0  0  0
 10 28  1  0  0  0  0
 11 12  1  0  0  0  0
 12 13  1  0  0  0  0
 12 17  2  0  0  0  0
 13 14  1  0  0  0  0
 14 18  2  0  0  0  0
 14 19  1  0  0  0  0
 15 29  1  0  0  0  0
 15 30  1  0  0  0  0
 15 31  1  0  0  0  0
 16 32  1  0  0  0  0
 16 33  1  0  0  0  0
 16 34  1  0  0  0  0
 18 20  1  0  0  0  0
 18 35  1  0  0  0  0
 19 21  2  0  0  0  0
 19 36  1  0  0  0  0
 20 22  2  0  0  0  0
 20 24  1  0  0  0  0
 21 22  1  0  0  0  0
 21 37  1  0  0  0  0
 22 38  1  0  0  0  0
 23 39  1  0  0  0  0
 26 27  1  0  0  0  0
 26 43  1  0  0  0  0
 26 44  1  0  0  0  0
 27 45  1  0  0  0  0
 27 46  1  0  0  0  0
M  END
> <PUBCHEM_COMPOUND_CID>
24905154

> <PUBCHEM_COMPOUND_CANONICALIZED>
1

> <PUBCHEM_CACTVS_COMPLEXITY>
586

> <PUBCHEM_CACTVS_HBOND_ACCEPTOR>
7

> <PUBCHEM_CACTVS_HBOND_DONOR>
2

> <PUBCHEM_CACTVS_ROTATABLE_BOND>
4

> <PUBCHEM_CACTVS_SUBSKEYS>
AAADceB7oABAAAAAAAAAAAAAAAAAAWIAAAA8QAAAAAAAAFgB/AAAHgQYAAAADCjF3wS3sN7IEAiqAydzdACSlCt1gLAd2CEoRNiIKLLA3dGEpQhoiALIyacYicCeAAACAAAAAAAAAAQAAAAAAAAAAAAAAA==

> <PUBCHEM_IUPAC_OPENEYE_NAME>
3-(4-amino-1-isopropyl-pyrazolo[3,4-d]pyrimidin-3-yl)-N-(4,5-dihydrothiazol-2-yl)benzamide

> <PUBCHEM_IUPAC_CAS_NAME>
3-(4-amino-1-propan-2-yl-3-pyrazolo[3,4-d]pyrimidinyl)-N-(4,5-dihydrothiazol-2-yl)benzamide

> <PUBCHEM_IUPAC_NAME_MARKUP>
3-(4-amino-1-propan-2-ylpyrazolo[3,4-d]pyrimidin-3-yl)-<I>N</I>-(4,5-dihydro-1,3-thiazol-2-yl)benzamide

> <PUBCHEM_IUPAC_NAME>
3-(4-amino-1-propan-2-ylpyrazolo[3,4-d]pyrimidin-3-yl)-N-(4,5-dihydro-1,3-thiazol-2-yl)benzamide

> <PUBCHEM_IUPAC_SYSTEMATIC_NAME>
3-(4-azanyl-1-propan-2-yl-pyrazolo[3,4-d]pyrimidin-3-yl)-N-(4,5-dihydro-1,3-thiazol-2-yl)benzamide

> <PUBCHEM_IUPAC_TRADITIONAL_NAME>
3-(4-amino-1-isopropyl-pyrazolo[3,4-d]pyrimidin-3-yl)-N-(2-thiazolin-2-yl)benzamide

> <PUBCHEM_IUPAC_INCHI>
InChI=1S/C18H19N7OS/c1-10(2)25-16-13(15(19)21-9-22-16)14(24-25)11-4-3-5-12(8-11)17(26)23-18-20-6-7-27-18/h3-5,8-10H,6-7H2,1-2H3,(H2,19,21,22)(H,20,23,26)

> <PUBCHEM_IUPAC_INCHIKEY>
WGYPOAXANMFHMT-UHFFFAOYSA-N

> <PUBCHEM_XLOGP3_AA>
1.9

> <PUBCHEM_EXACT_MASS>
381.13717943

> <PUBCHEM_MOLECULAR_FORMULA>
C18H19N7OS

> <PUBCHEM_MOLECULAR_WEIGHT>
381.5

> <PUBCHEM_SMILES>
CC(C)N1C2=NC=NC(=C2C(=N1)C3=CC(=CC=C3)C(=O)NC4=NCCS4)N

> <PUBCHEM_OPENEYE_CAN_SMILES>
CC(C)N1C2=NC=NC(=C2C(=N1)C3=CC(=CC=C3)C(=O)NC4=NCCS4)N

> <PUBCHEM_OPENEYE_ISO_SMILES>
CC(C)N1C2=NC=NC(=C2C(=N1)C3=CC(=CC=C3)C(=O)NC4=NCCS4)N

> <PUBCHEM_CACTVS_TPSA>
136

> <PUBCHEM_MONOISOTOPIC_WEIGHT>
381.13717943

> <PUBCHEM_TOTAL_CHARGE>
0

> <PUBCHEM_HEAVY_ATOM_COUNT>
27

> <PUBCHEM_ATOM_DEF_STEREO_COUNT>
0

> <PUBCHEM_ATOM_UDEF_STEREO_COUNT>
0

> <PUBCHEM_BOND_DEF_STEREO_COUNT>
0

> <PUBCHEM_BOND_UDEF_STEREO_COUNT>
0

> <PUBCHEM_ISOTOPIC_ATOM_COUNT>
0

> <PUBCHEM_COMPONENT_COUNT>
1

> <PUBCHEM_CACTVS_TAUTO_COUNT>
-1

> <PUBCHEM_COORDINATE_TYPE>
1
5
255

> <PUBCHEM_BONDANNOTATIONS>
11  12  8
12  13  8
12  17  8
14  18  8
14  19  8
18  20  8
19  21  8
20  22  8
21  22  8
3  11  8
3  4  8
4  13  8
5  11  8
5  23  8
6  17  8
6  23  8

$$$$
