11858109
  -OEChem-03202506252D

 79 84  0     0  0  0  0  0  0999 V2000
    8.9214    1.9824    0.0000 F   0  0  0  0  0  0  0  0  0  0  0  0
   14.9196    7.5521    0.0000 F   0  0  0  0  0  0  0  0  0  0  0  0
    2.0000   -7.0521    0.0000 O   0  0  0  0  0  0  0  0  0  0  0  0
    5.4641   -3.0521    0.0000 O   0  0  0  0  0  0  0  0  0  0  0  0
    5.4641   -1.0521    0.0000 O   0  0  0  0  0  0  0  0  0  0  0  0
    8.9446   -0.0175    0.0000 O   0  0  0  0  0  0  0  0  0  0  0  0
   13.2686    0.5325    0.0000 O   0  0  0  0  0  0  0  0  0  0  0  0
    3.7320   -6.0521    0.0000 N   0  0  0  0  0  0  0  0  0  0  0  0
    8.9561   -3.0868    0.0000 N   0  0  0  0  0  0  0  0  0  0  0  0
   14.1172    2.0424    0.0000 N   0  0  0  0  0  0  0  0  0  0  0  0
   14.9659    3.5524    0.0000 N   0  0  0  0  0  0  0  0  0  0  0  0
   13.2339    3.5323    0.0000 N   0  0  0  0  0  0  0  0  0  0  0  0
    3.7320   -7.0521    0.0000 C   0  0  0  0  0  0  0  0  0  0  0  0
    2.8660   -5.5521    0.0000 C   0  0  0  0  0  0  0  0  0  0  0  0
    4.5981   -5.5521    0.0000 C   0  0  0  0  0  0  0  0  0  0  0  0
    2.8660   -7.5521    0.0000 C   0  0  0  0  0  0  0  0  0  0  0  0
    2.0000   -6.0521    0.0000 C   0  0  0  0  0  0  0  0  0  0  0  0
    4.5981   -4.5521    0.0000 C   0  0  0  0  0  0  0  0  0  0  0  0
    5.4641   -4.0521    0.0000 C   0  0  0  0  0  0  0  0  0  0  0  0
    6.3301   -2.5521    0.0000 C   0  0  0  0  0  0  0  0  0  0  0  0
    6.3301   -1.5521    0.0000 C   0  0  0  0  0  0  0  0  0  0  0  0
    7.1962   -3.0521    0.0000 C   0  0  0  0  0  0  0  0  0  0  0  0
    8.0622   -1.5521    0.0000 C   0  0  0  0  0  0  0  0  0  0  0  0
    8.0622   -2.5521    0.0000 C   0  0  0  0  0  0  0  0  0  0  0  0
    7.1962   -1.0521    0.0000 C   0  0  0  0  0  0  0  0  0  0  0  0
    8.9561   -1.0174    0.0000 C   0  0  0  0  0  0  0  0  0  0  0  0
    9.8622   -1.5313    0.0000 C   0  0  0  0  0  0  0  0  0  0  0  0
   11.5251    1.5124    0.0000 C   0  0  0  0  0  0  0  0  0  0  0  0
    9.8047    0.4925    0.0000 C   0  0  0  0  0  0  0  0  0  0  0  0
   12.3853    2.0224    0.0000 C   0  0  0  0  0  0  0  0  0  0  0  0
    9.8622   -2.5729    0.0000 C   0  0  0  0  0  0  0  0  0  0  0  0
   13.2570    1.5325    0.0000 C   0  0  0  0  0  0  0  0  0  0  0  0
   10.6534    2.0024    0.0000 C   0  0  0  0  0  0  0  0  0  0  0  0
   11.5367    0.5125    0.0000 C   0  0  0  0  0  0  0  0  0  0  0  0
    9.7932    1.4924    0.0000 C   0  0  0  0  0  0  0  0  0  0  0  0
   10.6765    0.0025    0.0000 C   0  0  0  0  0  0  0  0  0  0  0  0
   14.1057    3.0424    0.0000 C   0  0  0  0  0  0  0  0  0  0  0  0
   12.3737    3.0224    0.0000 C   0  0  0  0  0  0  0  0  0  0  0  0
    5.4641   -0.0521    0.0000 C   0  0  0  0  0  0  0  0  0  0  0  0
   14.9890    1.5525    0.0000 C   0  0  0  0  0  0  0  0  0  0  0  0
   14.9543    4.5523    0.0000 C   0  0  0  0  0  0  0  0  0  0  0  0
   14.0825    5.0422    0.0000 C   0  0  0  0  0  0  0  0  0  0  0  0
   15.8145    5.0623    0.0000 C   0  0  0  0  0  0  0  0  0  0  0  0
   14.0710    6.0422    0.0000 C   0  0  0  0  0  0  0  0  0  0  0  0
   15.8029    6.0622    0.0000 C   0  0  0  0  0  0  0  0  0  0  0  0
   14.9312    6.5522    0.0000 C   0  0  0  0  0  0  0  0  0  0  0  0
    3.9441   -7.6347    0.0000 H   0  0  0  0  0  0  0  0  0  0  0  0
    4.3426   -6.9444    0.0000 H   0  0  0  0  0  0  0  0  0  0  0  0
    3.2646   -5.0771    0.0000 H   0  0  0  0  0  0  0  0  0  0  0  0
    2.4675   -5.0771    0.0000 H   0  0  0  0  0  0  0  0  0  0  0  0
    4.8101   -6.1347    0.0000 H   0  0  0  0  0  0  0  0  0  0  0  0
    5.2087   -5.4444    0.0000 H   0  0  0  0  0  0  0  0  0  0  0  0
    2.4675   -8.0270    0.0000 H   0  0  0  0  0  0  0  0  0  0  0  0
    3.2646   -8.0270    0.0000 H   0  0  0  0  0  0  0  0  0  0  0  0
    1.7880   -5.4695    0.0000 H   0  0  0  0  0  0  0  0  0  0  0  0
    1.3894   -6.1598    0.0000 H   0  0  0  0  0  0  0  0  0  0  0  0
    4.3860   -3.9695    0.0000 H   0  0  0  0  0  0  0  0  0  0  0  0
    3.9875   -4.6598    0.0000 H   0  0  0  0  0  0  0  0  0  0  0  0
    5.6762   -4.6347    0.0000 H   0  0  0  0  0  0  0  0  0  0  0  0
    6.0747   -3.9444    0.0000 H   0  0  0  0  0  0  0  0  0  0  0  0
    7.1962   -3.6721    0.0000 H   0  0  0  0  0  0  0  0  0  0  0  0
    7.1962   -0.4321    0.0000 H   0  0  0  0  0  0  0  0  0  0  0  0
   10.3979   -1.2192    0.0000 H   0  0  0  0  0  0  0  0  0  0  0  0
   10.3979   -2.8850    0.0000 H   0  0  0  0  0  0  0  0  0  0  0  0
   10.6462    2.6224    0.0000 H   0  0  0  0  0  0  0  0  0  0  0  0
   12.0772    0.2087    0.0000 H   0  0  0  0  0  0  0  0  0  0  0  0
   10.6837   -0.6174    0.0000 H   0  0  0  0  0  0  0  0  0  0  0  0
   11.8333    3.3261    0.0000 H   0  0  0  0  0  0  0  0  0  0  0  0
    6.0841   -0.0521    0.0000 H   0  0  0  0  0  0  0  0  0  0  0  0
    5.4641    0.5679    0.0000 H   0  0  0  0  0  0  0  0  0  0  0  0
    4.8441   -0.0521    0.0000 H   0  0  0  0  0  0  0  0  0  0  0  0
   14.6852    1.0120    0.0000 H   0  0  0  0  0  0  0  0  0  0  0  0
   15.5295    1.2487    0.0000 H   0  0  0  0  0  0  0  0  0  0  0  0
   15.2928    2.0930    0.0000 H   0  0  0  0  0  0  0  0  0  0  0  0
   15.5063    3.2486    0.0000 H   0  0  0  0  0  0  0  0  0  0  0  0
   13.5492    4.7261    0.0000 H   0  0  0  0  0  0  0  0  0  0  0  0
   16.3550    4.7585    0.0000 H   0  0  0  0  0  0  0  0  0  0  0  0
   13.5305    6.3460    0.0000 H   0  0  0  0  0  0  0  0  0  0  0  0
   16.3362    6.3784    0.0000 H   0  0  0  0  0  0  0  0  0  0  0  0
  1 35  1  0  0  0  0
  2 46  1  0  0  0  0
  3 16  1  0  0  0  0
  3 17  1  0  0  0  0
  4 19  1  0  0  0  0
  4 20  1  0  0  0  0
  5 21  1  0  0  0  0
  5 39  1  0  0  0  0
  6 26  1  0  0  0  0
  6 29  1  0  0  0  0
  7 32  2  0  0  0  0
  8 13  1  0  0  0  0
  8 14  1  0  0  0  0
  8 15  1  0  0  0  0
  9 24  2  0  0  0  0
  9 31  1  0  0  0  0
 10 32  1  0  0  0  0
 10 37  1  0  0  0  0
 10 40  1  0  0  0  0
 11 37  1  0  0  0  0
 11 41  1  0  0  0  0
 11 75  1  0  0  0  0
 12 37  2  0  0  0  0
 12 38  1  0  0  0  0
 13 16  1  0  0  0  0
 13 47  1  0  0  0  0
 13 48  1  0  0  0  0
 14 17  1  0  0  0  0
 14 49  1  0  0  0  0
 14 50  1  0  0  0  0
 15 18  1  0  0  0  0
 15 51  1  0  0  0  0
 15 52  1  0  0  0  0
 16 53  1  0  0  0  0
 16 54  1  0  0  0  0
 17 55  1  0  0  0  0
 17 56  1  0  0  0  0
 18 19  1  0  0  0  0
 18 57  1  0  0  0  0
 18 58  1  0  0  0  0
 19 59  1  0  0  0  0
 19 60  1  0  0  0  0
 20 21  1  0  0  0  0
 20 22  2  0  0  0  0
 21 25  2  0  0  0  0
 22 24  1  0  0  0  0
 22 61  1  0  0  0  0
 23 24  1  0  0  0  0
 23 25  1  0  0  0  0
 23 26  2  0  0  0  0
 25 62  1  0  0  0  0
 26 27  1  0  0  0  0
 27 31  2  0  0  0  0
 27 63  1  0  0  0  0
 28 30  1  0  0  0  0
 28 33  2  0  0  0  0
 28 34  1  0  0  0  0
 29 35  2  0  0  0  0
 29 36  1  0  0  0  0
 30 32  1  0  0  0  0
 30 38  2  0  0  0  0
 31 64  1  0  0  0  0
 33 35  1  0  0  0  0
 33 65  1  0  0  0  0
 34 36  2  0  0  0  0
 34 66  1  0  0  0  0
 36 67  1  0  0  0  0
 38 68  1  0  0  0  0
 39 69  1  0  0  0  0
 39 70  1  0  0  0  0
 39 71  1  0  0  0  0
 40 72  1  0  0  0  0
 40 73  1  0  0  0  0
 40 74  1  0  0  0  0
 41 42  2  0  0  0  0
 41 43  1  0  0  0  0
 42 44  1  0  0  0  0
 42 76  1  0  0  0  0
 43 45  2  0  0  0  0
 43 77  1  0  0  0  0
 44 46  2  0  0  0  0
 44 78  1  0  0  0  0
 45 46  1  0  0  0  0
 45 79  1  0  0  0  0
M  END
> <PUBCHEM_COMPOUND_CID>
11858109

> <PUBCHEM_COMPOUND_CANONICALIZED>
1

> <PUBCHEM_CACTVS_COMPLEXITY>
1070

> <PUBCHEM_CACTVS_HBOND_ACCEPTOR>
10

> <PUBCHEM_CACTVS_HBOND_DONOR>
1

> <PUBCHEM_CACTVS_ROTATABLE_BOND>
11

> <PUBCHEM_CACTVS_SUBSKEYS>
AAADcfB/uYAAAAAAAAAAAAAAAAAAAAAAAAA8eMECAAAAAACx9AAAHwAQAAAADAzhng4/xvPIFACoAzV3dACCiCExIiAJ2CE+7NiPJvLEvZuHOCru0xva6Of4+L+OIEABAgACQABAgAIEAASAAAAAAAAAAA==

> <PUBCHEM_IUPAC_OPENEYE_NAME>
2-(4-fluoroanilino)-5-[3-fluoro-4-[[6-methoxy-7-(3-morpholinopropoxy)-4-quinolyl]oxy]phenyl]-3-methyl-pyrimidin-4-one

> <PUBCHEM_IUPAC_CAS_NAME>
2-(4-fluoroanilino)-5-[3-fluoro-4-[[6-methoxy-7-[3-(4-morpholinyl)propoxy]-4-quinolinyl]oxy]phenyl]-3-methyl-4-pyrimidinone

> <PUBCHEM_IUPAC_NAME_MARKUP>
2-(4-fluoroanilino)-5-[3-fluoro-4-[6-methoxy-7-(3-morpholin-4-ylpropoxy)quinolin-4-yl]oxyphenyl]-3-methylpyrimidin-4-one

> <PUBCHEM_IUPAC_NAME>
2-(4-fluoroanilino)-5-[3-fluoro-4-[6-methoxy-7-(3-morpholin-4-ylpropoxy)quinolin-4-yl]oxyphenyl]-3-methylpyrimidin-4-one

> <PUBCHEM_IUPAC_SYSTEMATIC_NAME>
5-[3-fluoranyl-4-[6-methoxy-7-(3-morpholin-4-ylpropoxy)quinolin-4-yl]oxy-phenyl]-2-[(4-fluorophenyl)amino]-3-methyl-pyrimidin-4-one

> <PUBCHEM_IUPAC_TRADITIONAL_NAME>
2-(4-fluoroanilino)-5-[3-fluoro-4-[[6-methoxy-7-(3-morpholinopropoxy)-4-quinolyl]oxy]phenyl]-3-methyl-pyrimidin-4-one

> <PUBCHEM_IUPAC_INCHI>
InChI=1S/C34H33F2N5O5/c1-40-33(42)26(21-38-34(40)39-24-7-5-23(35)6-8-24)22-4-9-30(27(36)18-22)46-29-10-11-37-28-20-32(31(43-2)19-25(28)29)45-15-3-12-41-13-16-44-17-14-41/h4-11,18-21H,3,12-17H2,1-2H3,(H,38,39)

> <PUBCHEM_IUPAC_INCHIKEY>
ONSZEUCTVQJHOZ-UHFFFAOYSA-N

> <PUBCHEM_XLOGP3_AA>
4.4

> <PUBCHEM_EXACT_MASS>
629.24497549

> <PUBCHEM_MOLECULAR_FORMULA>
C34H33F2N5O5

> <PUBCHEM_MOLECULAR_WEIGHT>
629.7

> <PUBCHEM_SMILES>
CN1C(=O)C(=CN=C1NC2=CC=C(C=C2)F)C3=CC(=C(C=C3)OC4=C5C=C(C(=CC5=NC=C4)OCCCN6CCOCC6)OC)F

> <PUBCHEM_OPENEYE_CAN_SMILES>
CN1C(=O)C(=CN=C1NC2=CC=C(C=C2)F)C3=CC(=C(C=C3)OC4=C5C=C(C(=CC5=NC=C4)OCCCN6CCOCC6)OC)F

> <PUBCHEM_OPENEYE_ISO_SMILES>
CN1C(=O)C(=CN=C1NC2=CC=C(C=C2)F)C3=CC(=C(C=C3)OC4=C5C=C(C(=CC5=NC=C4)OCCCN6CCOCC6)OC)F

> <PUBCHEM_CACTVS_TPSA>
97.8

> <PUBCHEM_MONOISOTOPIC_WEIGHT>
629.24497549

> <PUBCHEM_TOTAL_CHARGE>
0

> <PUBCHEM_HEAVY_ATOM_COUNT>
46

> <PUBCHEM_ATOM_DEF_STEREO_COUNT>
0

> <PUBCHEM_ATOM_UDEF_STEREO_COUNT>
0

> <PUBCHEM_BOND_DEF_STEREO_COUNT>
0

> <PUBCHEM_BOND_UDEF_STEREO_COUNT>
0

> <PUBCHEM_ISOTOPIC_ATOM_COUNT>
0

> <PUBCHEM_COMPONENT_COUNT>
1

> <PUBCHEM_CACTVS_TAUTO_COUNT>
-1

> <PUBCHEM_COORDINATE_TYPE>
1
5
255

> <PUBCHEM_BONDANNOTATIONS>
10  32  8
10  37  8
12  37  8
12  38  8
20  21  8
20  22  8
21  25  8
22  24  8
23  24  8
23  25  8
23  26  8
26  27  8
27  31  8
28  33  8
28  34  8
29  35  8
29  36  8
30  32  8
30  38  8
33  35  8
34  36  8
41  42  8
41  43  8
42  44  8
43  45  8
44  46  8
45  46  8
9  24  8
9  31  8

$$$$
