49830922
  -OEChem-03202503082D

 42 45  0     0  0  0  0  0  0999 V2000
    6.0682   -2.0000    0.0000 N   0  0  0  0  0  0  0  0  0  0  0  0
    9.5984    0.0241    0.0000 N   0  0  0  0  0  0  0  0  0  0  0  0
    2.5381    0.0241    0.0000 N   0  0  0  0  0  0  0  0  0  0  0  0
    6.0682    0.0000    0.0000 C   0  0  0  0  0  0  0  0  0  0  0  0
    6.9343   -0.5000    0.0000 C   0  0  0  0  0  0  0  0  0  0  0  0
    5.2022   -0.5000    0.0000 C   0  0  0  0  0  0  0  0  0  0  0  0
    6.9343   -1.5000    0.0000 C   0  0  0  0  0  0  0  0  0  0  0  0
    5.2022   -1.5000    0.0000 C   0  0  0  0  0  0  0  0  0  0  0  0
    6.0682    1.0000    0.0000 C   0  0  0  0  0  0  0  0  0  0  0  0
    7.8282    0.0347    0.0000 C   0  0  0  0  0  0  0  0  0  0  0  0
    4.3083    0.0347    0.0000 C   0  0  0  0  0  0  0  0  0  0  0  0
    7.8282   -2.0347    0.0000 C   0  0  0  0  0  0  0  0  0  0  0  0
    4.3083   -2.0347    0.0000 C   0  0  0  0  0  0  0  0  0  0  0  0
    6.0682   -3.0000    0.0000 C   0  0  0  0  0  0  0  0  0  0  0  0
    8.7343   -0.4792    0.0000 C   0  0  0  0  0  0  0  0  0  0  0  0
    3.4022   -0.4792    0.0000 C   0  0  0  0  0  0  0  0  0  0  0  0
    6.9343    1.5000    0.0000 C   0  0  0  0  0  0  0  0  0  0  0  0
    5.2022    1.5000    0.0000 C   0  0  0  0  0  0  0  0  0  0  0  0
    8.7343   -1.5208    0.0000 C   0  0  0  0  0  0  0  0  0  0  0  0
    3.4022   -1.5208    0.0000 C   0  0  0  0  0  0  0  0  0  0  0  0
    6.9343    2.5000    0.0000 C   0  0  0  0  0  0  0  0  0  0  0  0
    5.2022    2.5000    0.0000 C   0  0  0  0  0  0  0  0  0  0  0  0
    6.0682    3.0000    0.0000 C   0  0  0  0  0  0  0  0  0  0  0  0
    6.6052    0.3100    0.0000 H   0  0  0  0  0  0  0  0  0  0  0  0
    7.8210    0.6546    0.0000 H   0  0  0  0  0  0  0  0  0  0  0  0
    4.3154    0.6546    0.0000 H   0  0  0  0  0  0  0  0  0  0  0  0
    7.8210   -2.6546    0.0000 H   0  0  0  0  0  0  0  0  0  0  0  0
    4.3154   -2.6546    0.0000 H   0  0  0  0  0  0  0  0  0  0  0  0
    5.4482   -3.0000    0.0000 H   0  0  0  0  0  0  0  0  0  0  0  0
    6.0682   -3.6200    0.0000 H   0  0  0  0  0  0  0  0  0  0  0  0
    6.6882   -3.0000    0.0000 H   0  0  0  0  0  0  0  0  0  0  0  0
    7.4712    1.1900    0.0000 H   0  0  0  0  0  0  0  0  0  0  0  0
    4.6653    1.1900    0.0000 H   0  0  0  0  0  0  0  0  0  0  0  0
    9.2700   -1.8329    0.0000 H   0  0  0  0  0  0  0  0  0  0  0  0
    2.8665   -1.8329    0.0000 H   0  0  0  0  0  0  0  0  0  0  0  0
    7.4712    2.8100    0.0000 H   0  0  0  0  0  0  0  0  0  0  0  0
    4.6653    2.8100    0.0000 H   0  0  0  0  0  0  0  0  0  0  0  0
    6.0682    3.6200    0.0000 H   0  0  0  0  0  0  0  0  0  0  0  0
   10.1365   -0.2838    0.0000 H   0  0  0  0  0  0  0  0  0  0  0  0
    9.5960    0.6441    0.0000 H   0  0  0  0  0  0  0  0  0  0  0  0
    2.0000   -0.2838    0.0000 H   0  0  0  0  0  0  0  0  0  0  0  0
    2.5405    0.6441    0.0000 H   0  0  0  0  0  0  0  0  0  0  0  0
  1  7  1  0  0  0  0
  1  8  1  0  0  0  0
  1 14  1  0  0  0  0
  2 15  1  0  0  0  0
  2 39  1  0  0  0  0
  2 40  1  0  0  0  0
  3 16  1  0  0  0  0
  3 41  1  0  0  0  0
  3 42  1  0  0  0  0
  4  5  1  0  0  0  0
  4  6  1  0  0  0  0
  4  9  1  0  0  0  0
  4 24  1  0  0  0  0
  5  7  2  0  0  0  0
  5 10  1  0  0  0  0
  6  8  2  0  0  0  0
  6 11  1  0  0  0  0
  7 12  1  0  0  0  0
  8 13  1  0  0  0  0
  9 17  2  0  0  0  0
  9 18  1  0  0  0  0
 10 15  2  0  0  0  0
 10 25  1  0  0  0  0
 11 16  2  0  0  0  0
 11 26  1  0  0  0  0
 12 19  2  0  0  0  0
 12 27  1  0  0  0  0
 13 20  2  0  0  0  0
 13 28  1  0  0  0  0
 14 29  1  0  0  0  0
 14 30  1  0  0  0  0
 14 31  1  0  0  0  0
 15 19  1  0  0  0  0
 16 20  1  0  0  0  0
 17 21  1  0  0  0  0
 17 32  1  0  0  0  0
 18 22  2  0  0  0  0
 18 33  1  0  0  0  0
 19 34  1  0  0  0  0
 20 35  1  0  0  0  0
 21 23  2  0  0  0  0
 21 36  1  0  0  0  0
 22 23  1  0  0  0  0
 22 37  1  0  0  0  0
 23 38  1  0  0  0  0
M  END
> <PUBCHEM_COMPOUND_CID>
49830922

> <PUBCHEM_COMPOUND_CANONICALIZED>
1

> <PUBCHEM_CACTVS_COMPLEXITY>
378

> <PUBCHEM_CACTVS_HBOND_ACCEPTOR>
3

> <PUBCHEM_CACTVS_HBOND_DONOR>
2

> <PUBCHEM_CACTVS_ROTATABLE_BOND>
1

> <PUBCHEM_CACTVS_SUBSKEYS>
AAADceB7AAAAAAAAAAAAAAAAAAAAAAAAAAA8YMEAAAAAAACxUAAAHAAQAAAADQiBGAQywINAAACAAiRCQACCAAAhAgAIiAAIZIgIIGLAkZGEIAhgkADIyAcQgMAOgACAQAACAAAAAQCAAAQAAAAAAAAAAA==

> <PUBCHEM_IUPAC_OPENEYE_NAME>
10-methyl-9-phenyl-9H-acridine-2,7-diamine

> <PUBCHEM_IUPAC_CAS_NAME>
10-methyl-9-phenyl-9H-acridine-2,7-diamine

> <PUBCHEM_IUPAC_NAME_MARKUP>
10-methyl-9-phenyl-9<I>H</I>-acridine-2,7-diamine

> <PUBCHEM_IUPAC_NAME>
10-methyl-9-phenyl-9H-acridine-2,7-diamine

> <PUBCHEM_IUPAC_SYSTEMATIC_NAME>
10-methyl-9-phenyl-9H-acridine-2,7-diamine

> <PUBCHEM_IUPAC_TRADITIONAL_NAME>
(7-amino-10-methyl-9-phenyl-9H-acridin-2-yl)amine

> <PUBCHEM_IUPAC_INCHI>
InChI=1S/C20H19N3/c1-23-18-9-7-14(21)11-16(18)20(13-5-3-2-4-6-13)17-12-15(22)8-10-19(17)23/h2-12,20H,21-22H2,1H3

> <PUBCHEM_IUPAC_INCHIKEY>
UIRCQOKSJDLYBB-UHFFFAOYSA-N

> <PUBCHEM_XLOGP3_AA>
3.7

> <PUBCHEM_EXACT_MASS>
301.157897619

> <PUBCHEM_MOLECULAR_FORMULA>
C20H19N3

> <PUBCHEM_MOLECULAR_WEIGHT>
301.4

> <PUBCHEM_SMILES>
CN1C2=C(C=C(C=C2)N)C(C3=C1C=CC(=C3)N)C4=CC=CC=C4

> <PUBCHEM_OPENEYE_CAN_SMILES>
CN1C2=C(C=C(C=C2)N)C(C3=C1C=CC(=C3)N)C4=CC=CC=C4

> <PUBCHEM_OPENEYE_ISO_SMILES>
CN1C2=C(C=C(C=C2)N)C(C3=C1C=CC(=C3)N)C4=CC=CC=C4

> <PUBCHEM_CACTVS_TPSA>
55.3

> <PUBCHEM_MONOISOTOPIC_WEIGHT>
301.157897619

> <PUBCHEM_TOTAL_CHARGE>
0

> <PUBCHEM_HEAVY_ATOM_COUNT>
23

> <PUBCHEM_ATOM_DEF_STEREO_COUNT>
0

> <PUBCHEM_ATOM_UDEF_STEREO_COUNT>
0

> <PUBCHEM_BOND_DEF_STEREO_COUNT>
0

> <PUBCHEM_BOND_UDEF_STEREO_COUNT>
0

> <PUBCHEM_ISOTOPIC_ATOM_COUNT>
0

> <PUBCHEM_COMPONENT_COUNT>
1

> <PUBCHEM_CACTVS_TAUTO_COUNT>
-1

> <PUBCHEM_COORDINATE_TYPE>
1
5
255

> <PUBCHEM_BONDANNOTATIONS>
10  15  8
11  16  8
12  19  8
13  20  8
15  19  8
16  20  8
17  21  8
18  22  8
21  23  8
22  23  8
5  10  8
5  7  8
6  11  8
6  8  8
7  12  8
8  13  8
9  17  8
9  18  8

$$$$
