52943394
  -OEChem-03192523452D

 47 50  0     1  0  0  0  0  0999 V2000
    5.9209    4.7099    0.0000 Cl  0  0  0  0  0  0  0  0  0  0  0  0
    7.2566    3.2213    0.0000 O   0  0  0  0  0  0  0  0  0  0  0  0
    7.5673   -3.9656    0.0000 N   0  0  0  0  0  0  0  0  0  0  0  0
    4.6783   -0.7016    0.0000 N   0  0  0  0  0  0  0  0  0  0  0  0
    5.2619    0.1031    0.0000 N   0  0  0  0  0  0  0  0  0  0  0  0
    2.8660   -0.8969    0.0000 N   0  0  0  0  0  0  0  0  0  0  0  0
    2.0000    0.6031    0.0000 N   0  0  0  0  0  0  0  0  0  0  0  0
    2.8660    2.1031    0.0000 N   0  0  0  0  0  0  0  0  0  0  0  0
    6.2781   -2.8089    0.0000 C   0  0  3  0  0  0  0  0  0  0  0  0
    5.6103   -3.5532    0.0000 C   0  0  0  0  0  0  0  0  0  0  0  0
    5.9674   -1.8584    0.0000 C   0  0  0  0  0  0  0  0  0  0  0  0
    7.2566   -3.0151    0.0000 C   0  0  0  0  0  0  0  0  0  0  0  0
    5.9209   -4.5037    0.0000 C   0  0  0  0  0  0  0  0  0  0  0  0
    6.8994   -4.7099    0.0000 C   0  0  0  0  0  0  0  0  0  0  0  0
    4.9889   -1.6521    0.0000 C   0  0  0  0  0  0  0  0  0  0  0  0
    3.7320   -0.3969    0.0000 C   0  0  0  0  0  0  0  0  0  0  0  0
    3.7320    0.6031    0.0000 C   0  0  0  0  0  0  0  0  0  0  0  0
    4.6783    0.9078    0.0000 C   0  0  0  0  0  0  0  0  0  0  0  0
    4.9889    1.8584    0.0000 C   0  0  0  0  0  0  0  0  0  0  0  0
    2.8660    1.1031    0.0000 C   0  0  0  0  0  0  0  0  0  0  0  0
    2.0000   -0.3969    0.0000 C   0  0  0  0  0  0  0  0  0  0  0  0
    5.9674    2.0646    0.0000 C   0  0  0  0  0  0  0  0  0  0  0  0
    4.3211    2.6027    0.0000 C   0  0  0  0  0  0  0  0  0  0  0  0
    6.2781    3.0151    0.0000 C   0  0  0  0  0  0  0  0  0  0  0  0
    4.6318    3.5532    0.0000 C   0  0  0  0  0  0  0  0  0  0  0  0
    5.6103    3.7594    0.0000 C   0  0  0  0  0  0  0  0  0  0  0  0
    5.6714   -2.6810    0.0000 H   0  0  0  0  0  0  0  0  0  0  0  0
    5.2277   -3.0653    0.0000 H   0  0  0  0  0  0  0  0  0  0  0  0
    5.0633   -3.8452    0.0000 H   0  0  0  0  0  0  0  0  0  0  0  0
    6.5812   -1.7710    0.0000 H   0  0  0  0  0  0  0  0  0  0  0  0
    5.9880   -1.2387    0.0000 H   0  0  0  0  0  0  0  0  0  0  0  0
    7.8704   -2.9278    0.0000 H   0  0  0  0  0  0  0  0  0  0  0  0
    7.2772   -2.3954    0.0000 H   0  0  0  0  0  0  0  0  0  0  0  0
    5.3071   -4.5910    0.0000 H   0  0  0  0  0  0  0  0  0  0  0  0
    5.9004   -5.1234    0.0000 H   0  0  0  0  0  0  0  0  0  0  0  0
    6.6682   -5.2852    0.0000 H   0  0  0  0  0  0  0  0  0  0  0  0
    7.4258   -5.0376    0.0000 H   0  0  0  0  0  0  0  0  0  0  0  0
    4.3751   -1.7395    0.0000 H   0  0  0  0  0  0  0  0  0  0  0  0
    4.9684   -2.2718    0.0000 H   0  0  0  0  0  0  0  0  0  0  0  0
    8.1739   -4.0935    0.0000 H   0  0  0  0  0  0  0  0  0  0  0  0
    1.4631   -0.7069    0.0000 H   0  0  0  0  0  0  0  0  0  0  0  0
    6.3815    1.6031    0.0000 H   0  0  0  0  0  0  0  0  0  0  0  0
    3.7144    2.4748    0.0000 H   0  0  0  0  0  0  0  0  0  0  0  0
    2.3291    2.4131    0.0000 H   0  0  0  0  0  0  0  0  0  0  0  0
    3.4030    2.4131    0.0000 H   0  0  0  0  0  0  0  0  0  0  0  0
    4.2177    4.0146    0.0000 H   0  0  0  0  0  0  0  0  0  0  0  0
    7.4492    3.8106    0.0000 H   0  0  0  0  0  0  0  0  0  0  0  0
  1 26  1  0  0  0  0
  2 24  1  0  0  0  0
  2 47  1  0  0  0  0
  3 12  1  0  0  0  0
  3 14  1  0  0  0  0
  3 40  1  0  0  0  0
  4  5  1  0  0  0  0
  4 15  1  0  0  0  0
  4 16  1  0  0  0  0
  5 18  2  0  0  0  0
  6 16  2  0  0  0  0
  6 21  1  0  0  0  0
  7 20  1  0  0  0  0
  7 21  2  0  0  0  0
  8 20  1  0  0  0  0
  8 44  1  0  0  0  0
  8 45  1  0  0  0  0
  9 10  1  0  0  0  0
  9 11  1  0  0  0  0
  9 12  1  0  0  0  0
  9 27  1  0  0  0  0
 10 13  1  0  0  0  0
 10 28  1  0  0  0  0
 10 29  1  0  0  0  0
 11 15  1  0  0  0  0
 11 30  1  0  0  0  0
 11 31  1  0  0  0  0
 12 32  1  0  0  0  0
 12 33  1  0  0  0  0
 13 14  1  0  0  0  0
 13 34  1  0  0  0  0
 13 35  1  0  0  0  0
 14 36  1  0  0  0  0
 14 37  1  0  0  0  0
 15 38  1  0  0  0  0
 15 39  1  0  0  0  0
 16 17  1  0  0  0  0
 17 18  1  0  0  0  0
 17 20  2  0  0  0  0
 18 19  1  0  0  0  0
 19 22  2  0  0  0  0
 19 23  1  0  0  0  0
 21 41  1  0  0  0  0
 22 24  1  0  0  0  0
 22 42  1  0  0  0  0
 23 25  2  0  0  0  0
 23 43  1  0  0  0  0
 24 26  2  0  0  0  0
 25 26  1  0  0  0  0
 25 46  1  0  0  0  0
M  END
> <PUBCHEM_COMPOUND_CID>
52943394

> <PUBCHEM_COMPOUND_CANONICALIZED>
1

> <PUBCHEM_CACTVS_COMPLEXITY>
471

> <PUBCHEM_CACTVS_HBOND_ACCEPTOR>
6

> <PUBCHEM_CACTVS_HBOND_DONOR>
3

> <PUBCHEM_CACTVS_ROTATABLE_BOND>
4

> <PUBCHEM_CACTVS_SUBSKEYS>
AAADceB7oAAEAAAAAAAAAAAAAAAAAWAAAAA8WIAAAAAAAFgB/AAAHgIYCAAADQ7BnyQ1tt7IEgCiAyZjZACShCsxpeAd2KAuT5iILqLD29OE9Ahs2BPI2CewwPAOBAABAAAACAAIAAIAAAAQAAAAAAAAAA==

> <PUBCHEM_IUPAC_OPENEYE_NAME>
5-[4-amino-1-[2-(3-piperidyl)ethyl]pyrazolo[3,4-d]pyrimidin-3-yl]-2-chloro-phenol

> <PUBCHEM_IUPAC_CAS_NAME>
5-[4-amino-1-[2-(3-piperidinyl)ethyl]-3-pyrazolo[3,4-d]pyrimidinyl]-2-chlorophenol

> <PUBCHEM_IUPAC_NAME_MARKUP>
5-[4-amino-1-(2-piperidin-3-ylethyl)pyrazolo[3,4-d]pyrimidin-3-yl]-2-chlorophenol

> <PUBCHEM_IUPAC_NAME>
5-[4-amino-1-(2-piperidin-3-ylethyl)pyrazolo[3,4-d]pyrimidin-3-yl]-2-chlorophenol

> <PUBCHEM_IUPAC_SYSTEMATIC_NAME>
5-[4-azanyl-1-(2-piperidin-3-ylethyl)pyrazolo[3,4-d]pyrimidin-3-yl]-2-chloranyl-phenol

> <PUBCHEM_IUPAC_TRADITIONAL_NAME>
5-[4-amino-1-[2-(3-piperidyl)ethyl]pyrazolo[3,4-d]pyrimidin-3-yl]-2-chloro-phenol

> <PUBCHEM_IUPAC_INCHI>
InChI=1S/C18H21ClN6O/c19-13-4-3-12(8-14(13)26)16-15-17(20)22-10-23-18(15)25(24-16)7-5-11-2-1-6-21-9-11/h3-4,8,10-11,21,26H,1-2,5-7,9H2,(H2,20,22,23)

> <PUBCHEM_IUPAC_INCHIKEY>
TXZDVQGUIJKUMP-UHFFFAOYSA-N

> <PUBCHEM_XLOGP3_AA>
2.4

> <PUBCHEM_EXACT_MASS>
372.1465370

> <PUBCHEM_MOLECULAR_FORMULA>
C18H21ClN6O

> <PUBCHEM_MOLECULAR_WEIGHT>
372.9

> <PUBCHEM_SMILES>
C1CC(CNC1)CCN2C3=NC=NC(=C3C(=N2)C4=CC(=C(C=C4)Cl)O)N

> <PUBCHEM_OPENEYE_CAN_SMILES>
C1CC(CNC1)CCN2C3=NC=NC(=C3C(=N2)C4=CC(=C(C=C4)Cl)O)N

> <PUBCHEM_OPENEYE_ISO_SMILES>
C1CC(CNC1)CCN2C3=NC=NC(=C3C(=N2)C4=CC(=C(C=C4)Cl)O)N

> <PUBCHEM_CACTVS_TPSA>
102

> <PUBCHEM_MONOISOTOPIC_WEIGHT>
372.1465370

> <PUBCHEM_TOTAL_CHARGE>
0

> <PUBCHEM_HEAVY_ATOM_COUNT>
26

> <PUBCHEM_ATOM_DEF_STEREO_COUNT>
0

> <PUBCHEM_ATOM_UDEF_STEREO_COUNT>
1

> <PUBCHEM_BOND_DEF_STEREO_COUNT>
0

> <PUBCHEM_BOND_UDEF_STEREO_COUNT>
0

> <PUBCHEM_ISOTOPIC_ATOM_COUNT>
0

> <PUBCHEM_COMPONENT_COUNT>
1

> <PUBCHEM_CACTVS_TAUTO_COUNT>
-1

> <PUBCHEM_COORDINATE_TYPE>
1
5
255

> <PUBCHEM_BONDANNOTATIONS>
16  17  8
17  18  8
17  20  8
19  22  8
19  23  8
22  24  8
23  25  8
24  26  8
25  26  8
4  16  8
4  5  8
5  18  8
6  16  8
6  21  8
7  20  8
7  21  8
9  11  3

$$$$
