18458813
  -OEChem-03202503262D

 42 44  0     1  0  0  0  0  0999 V2000
    5.1980    0.2500    0.0000 O   0  0  0  0  0  0  0  0  0  0  0  0
    2.5000   -0.0088    0.0000 N   0  0  3  0  0  0  0  0  0  0  0  0
    6.9300   -1.7500    0.0000 N   0  0  0  0  0  0  0  0  0  0  0  0
   12.1262    1.2500    0.0000 N   0  0  0  0  0  0  0  0  0  0  0  0
    3.4659    0.2500    0.0000 C   0  0  3  0  0  0  0  0  0  0  0  0
    3.2071    1.2159    0.0000 C   0  0  0  0  0  0  0  0  0  0  0  0
    2.2412    0.9571    0.0000 C   0  0  0  0  0  0  0  0  0  0  0  0
    4.3320   -0.2500    0.0000 C   0  0  0  0  0  0  0  0  0  0  0  0
    2.0000   -0.8748    0.0000 C   0  0  0  0  0  0  0  0  0  0  0  0
    6.0640   -0.2500    0.0000 C   0  0  0  0  0  0  0  0  0  0  0  0
    6.9300    0.2500    0.0000 C   0  0  0  0  0  0  0  0  0  0  0  0
    7.7960   -0.2500    0.0000 C   0  0  0  0  0  0  0  0  0  0  0  0
    8.6621    0.2500    0.0000 C   0  0  0  0  0  0  0  0  0  0  0  0
    9.5281   -0.2500    0.0000 C   0  0  0  0  0  0  0  0  0  0  0  0
    6.0640   -1.2500    0.0000 C   0  0  0  0  0  0  0  0  0  0  0  0
    7.7960   -1.2500    0.0000 C   0  0  0  0  0  0  0  0  0  0  0  0
   10.3941    0.2500    0.0000 C   0  0  0  0  0  0  0  0  0  0  0  0
   10.3941    1.2500    0.0000 C   0  0  0  0  0  0  0  0  0  0  0  0
   11.2602   -0.2500    0.0000 C   0  0  0  0  0  0  0  0  0  0  0  0
   11.2602    1.7500    0.0000 C   0  0  0  0  0  0  0  0  0  0  0  0
   12.1262    0.2500    0.0000 C   0  0  0  0  0  0  0  0  0  0  0  0
    3.3850   -0.3647    0.0000 H   0  0  0  0  0  0  0  0  0  0  0  0
    3.8060    1.3764    0.0000 H   0  0  0  0  0  0  0  0  0  0  0  0
    3.0466    1.8148    0.0000 H   0  0  0  0  0  0  0  0  0  0  0  0
    2.0807    1.5560    0.0000 H   0  0  0  0  0  0  0  0  0  0  0  0
    1.6423    0.7966    0.0000 H   0  0  0  0  0  0  0  0  0  0  0  0
    3.9334   -0.7249    0.0000 H   0  0  0  0  0  0  0  0  0  0  0  0
    4.7305   -0.7249    0.0000 H   0  0  0  0  0  0  0  0  0  0  0  0
    1.4631   -0.5648    0.0000 H   0  0  0  0  0  0  0  0  0  0  0  0
    1.6900   -1.4118    0.0000 H   0  0  0  0  0  0  0  0  0  0  0  0
    2.5369   -1.1848    0.0000 H   0  0  0  0  0  0  0  0  0  0  0  0
    6.9300    0.8700    0.0000 H   0  0  0  0  0  0  0  0  0  0  0  0
    9.0606    0.7249    0.0000 H   0  0  0  0  0  0  0  0  0  0  0  0
    8.2636    0.7249    0.0000 H   0  0  0  0  0  0  0  0  0  0  0  0
    9.1296   -0.7249    0.0000 H   0  0  0  0  0  0  0  0  0  0  0  0
    9.9266   -0.7249    0.0000 H   0  0  0  0  0  0  0  0  0  0  0  0
    5.5271   -1.5600    0.0000 H   0  0  0  0  0  0  0  0  0  0  0  0
    8.3330   -1.5600    0.0000 H   0  0  0  0  0  0  0  0  0  0  0  0
    9.8572    1.5600    0.0000 H   0  0  0  0  0  0  0  0  0  0  0  0
   11.2602   -0.8700    0.0000 H   0  0  0  0  0  0  0  0  0  0  0  0
   11.2602    2.3700    0.0000 H   0  0  0  0  0  0  0  0  0  0  0  0
   12.6631   -0.0600    0.0000 H   0  0  0  0  0  0  0  0  0  0  0  0
  1  8  1  0  0  0  0
  1 10  1  0  0  0  0
  2  5  1  0  0  0  0
  2  7  1  0  0  0  0
  2  9  1  0  0  0  0
  3 15  1  0  0  0  0
  3 16  2  0  0  0  0
  4 20  2  0  0  0  0
  4 21  1  0  0  0  0
  5  6  1  0  0  0  0
  5  8  1  0  0  0  0
  5 22  1  0  0  0  0
  6  7  1  0  0  0  0
  6 23  1  0  0  0  0
  6 24  1  0  0  0  0
  7 25  1  0  0  0  0
  7 26  1  0  0  0  0
  8 27  1  0  0  0  0
  8 28  1  0  0  0  0
  9 29  1  0  0  0  0
  9 30  1  0  0  0  0
  9 31  1  0  0  0  0
 10 11  1  0  0  0  0
 10 15  2  0  0  0  0
 11 12  2  0  0  0  0
 11 32  1  0  0  0  0
 12 13  1  0  0  0  0
 12 16  1  0  0  0  0
 13 14  1  0  0  0  0
 13 33  1  0  0  0  0
 13 34  1  0  0  0  0
 14 17  1  0  0  0  0
 14 35  1  0  0  0  0
 14 36  1  0  0  0  0
 15 37  1  0  0  0  0
 16 38  1  0  0  0  0
 17 18  2  0  0  0  0
 17 19  1  0  0  0  0
 18 20  1  0  0  0  0
 18 39  1  0  0  0  0
 19 21  2  0  0  0  0
 19 40  1  0  0  0  0
 20 41  1  0  0  0  0
 21 42  1  0  0  0  0
M  END
> <PUBCHEM_COMPOUND_CID>
18458813

> <PUBCHEM_COMPOUND_CANONICALIZED>
1

> <PUBCHEM_CACTVS_COMPLEXITY>
306

> <PUBCHEM_CACTVS_HBOND_ACCEPTOR>
4

> <PUBCHEM_CACTVS_HBOND_DONOR>
0

> <PUBCHEM_CACTVS_ROTATABLE_BOND>
6

> <PUBCHEM_CACTVS_SUBSKEYS>
AAADceB7IAAAAAAAAAAAAAAAAABYAAAAAAAsWAAAAAAAAAAB4AAAHgAAAAAADCzhmgY+hpMIFACgAjBnRASCiCAxYiAI2CA/bJgOJuLEsZuHOCjkwBHY6AewwOAOAAAAAAAAAAAAAAAAAAAAAAAAAAAAAA==

> <PUBCHEM_IUPAC_OPENEYE_NAME>
3-[(1-methylazetidin-2-yl)methoxy]-5-[2-(4-pyridyl)ethyl]pyridine

> <PUBCHEM_IUPAC_CAS_NAME>
3-[(1-methyl-2-azetidinyl)methoxy]-5-(2-pyridin-4-ylethyl)pyridine

> <PUBCHEM_IUPAC_NAME_MARKUP>
3-[(1-methylazetidin-2-yl)methoxy]-5-(2-pyridin-4-ylethyl)pyridine

> <PUBCHEM_IUPAC_NAME>
3-[(1-methylazetidin-2-yl)methoxy]-5-(2-pyridin-4-ylethyl)pyridine

> <PUBCHEM_IUPAC_SYSTEMATIC_NAME>
3-[(1-methylazetidin-2-yl)methoxy]-5-(2-pyridin-4-ylethyl)pyridine

> <PUBCHEM_IUPAC_TRADITIONAL_NAME>
3-[(1-methylazetidin-2-yl)methoxy]-5-[2-(4-pyridyl)ethyl]pyridine

> <PUBCHEM_IUPAC_INCHI>
InChI=1S/C17H21N3O/c1-20-9-6-16(20)13-21-17-10-15(11-19-12-17)3-2-14-4-7-18-8-5-14/h4-5,7-8,10-12,16H,2-3,6,9,13H2,1H3

> <PUBCHEM_IUPAC_INCHIKEY>
CXZZKTFGTNQHGD-UHFFFAOYSA-N

> <PUBCHEM_XLOGP3_AA>
2.2

> <PUBCHEM_EXACT_MASS>
283.168462302

> <PUBCHEM_MOLECULAR_FORMULA>
C17H21N3O

> <PUBCHEM_MOLECULAR_WEIGHT>
283.37

> <PUBCHEM_SMILES>
CN1CCC1COC2=CN=CC(=C2)CCC3=CC=NC=C3

> <PUBCHEM_OPENEYE_CAN_SMILES>
CN1CCC1COC2=CN=CC(=C2)CCC3=CC=NC=C3

> <PUBCHEM_OPENEYE_ISO_SMILES>
CN1CCC1COC2=CN=CC(=C2)CCC3=CC=NC=C3

> <PUBCHEM_CACTVS_TPSA>
38.3

> <PUBCHEM_MONOISOTOPIC_WEIGHT>
283.168462302

> <PUBCHEM_TOTAL_CHARGE>
0

> <PUBCHEM_HEAVY_ATOM_COUNT>
21

> <PUBCHEM_ATOM_DEF_STEREO_COUNT>
0

> <PUBCHEM_ATOM_UDEF_STEREO_COUNT>
1

> <PUBCHEM_BOND_DEF_STEREO_COUNT>
0

> <PUBCHEM_BOND_UDEF_STEREO_COUNT>
0

> <PUBCHEM_ISOTOPIC_ATOM_COUNT>
0

> <PUBCHEM_COMPONENT_COUNT>
1

> <PUBCHEM_CACTVS_TAUTO_COUNT>
-1

> <PUBCHEM_COORDINATE_TYPE>
1
5
255

> <PUBCHEM_BONDANNOTATIONS>
10  11  8
10  15  8
11  12  8
12  16  8
17  18  8
17  19  8
18  20  8
19  21  8
3  15  8
3  16  8
4  20  8
4  21  8
5  8  3

$$$$
