9806182
  -OEChem-03202505222D

 67 71  0     1  0  0  0  0  0999 V2000
   10.4352   -1.0124    0.0000 F   0  0  0  0  0  0  0  0  0  0  0  0
    9.6650   -2.1984    0.0000 F   0  0  0  0  0  0  0  0  0  0  0  0
    8.4789   -1.4282    0.0000 F   0  0  0  0  0  0  0  0  0  0  0  0
    4.0668    4.7322    0.0000 N   0  0  0  0  0  0  0  0  0  0  0  0
    5.5211    1.3540    0.0000 N   0  0  0  0  0  0  0  0  0  0  0  0
    6.8301    2.3051    0.0000 N   0  0  0  0  0  0  0  0  0  0  0  0
    4.5981   -2.2337    0.0000 N   0  0  0  0  0  0  0  0  0  0  0  0
    6.3301   -2.2337    0.0000 N   0  0  0  0  0  0  0  0  0  0  0  0
    5.2423    3.1141    0.0000 C   0  0  0  0  0  0  0  0  0  0  0  0
    4.2478    3.0096    0.0000 C   0  0  0  0  0  0  0  0  0  0  0  0
    5.6491    4.0277    0.0000 C   0  0  0  0  0  0  0  0  0  0  0  0
    5.8301    2.3051    0.0000 C   0  0  0  0  0  0  0  0  0  0  0  0
    3.6600    3.8186    0.0000 C   0  0  0  0  0  0  0  0  0  0  0  0
    5.0613    4.8367    0.0000 C   0  0  0  0  0  0  0  0  0  0  0  0
    6.3301    0.7663    0.0000 C   0  0  0  0  0  0  0  0  0  0  0  0
    7.1391    1.3540    0.0000 C   0  0  0  0  0  0  0  0  0  0  0  0
    4.5700    1.0450    0.0000 C   0  0  0  0  0  0  0  0  0  0  0  0
    6.3301   -0.2337    0.0000 C   0  0  0  0  0  0  0  0  0  0  0  0
    8.0902    1.0450    0.0000 C   0  0  0  0  0  0  0  0  0  0  0  0
    5.4641   -0.7337    0.0000 C   0  0  0  0  0  0  0  0  0  0  0  0
    7.1962   -0.7337    0.0000 C   0  0  0  0  0  0  0  0  0  0  0  0
    8.2981    0.0669    0.0000 C   0  0  0  0  0  0  0  0  0  0  0  0
    8.8334    1.7142    0.0000 C   0  0  0  0  0  0  0  0  0  0  0  0
    5.4641   -1.7337    0.0000 C   0  0  0  0  0  0  0  0  0  0  0  0
    9.2492   -0.2421    0.0000 C   0  0  0  0  0  0  0  0  0  0  0  0
    4.5981   -3.2337    0.0000 C   0  0  2  0  0  0  0  0  0  0  0  0
    7.1962   -1.7337    0.0000 C   0  0  0  0  0  0  0  0  0  0  0  0
    9.7844    1.4051    0.0000 C   0  0  0  0  0  0  0  0  0  0  0  0
    9.9923    0.4270    0.0000 C   0  0  0  0  0  0  0  0  0  0  0  0
    3.7320   -3.7337    0.0000 C   0  0  0  0  0  0  0  0  0  0  0  0
    9.4571   -1.2203    0.0000 C   0  0  0  0  0  0  0  0  0  0  0  0
    5.4641   -3.7337    0.0000 C   0  0  0  0  0  0  0  0  0  0  0  0
    3.7320   -4.7337    0.0000 C   0  0  0  0  0  0  0  0  0  0  0  0
    2.8660   -3.2337    0.0000 C   0  0  0  0  0  0  0  0  0  0  0  0
    2.8660   -5.2337    0.0000 C   0  0  0  0  0  0  0  0  0  0  0  0
    2.0000   -3.7337    0.0000 C   0  0  0  0  0  0  0  0  0  0  0  0
    2.0000   -4.7337    0.0000 C   0  0  0  0  0  0  0  0  0  0  0  0
    5.8590    3.1789    0.0000 H   0  0  0  0  0  0  0  0  0  0  0  0
    3.6906    2.7378    0.0000 H   0  0  0  0  0  0  0  0  0  0  0  0
    4.4187    2.4136    0.0000 H   0  0  0  0  0  0  0  0  0  0  0  0
    6.1631    3.6810    0.0000 H   0  0  0  0  0  0  0  0  0  0  0  0
    6.0798    4.4736    0.0000 H   0  0  0  0  0  0  0  0  0  0  0  0
    3.1460    4.1653    0.0000 H   0  0  0  0  0  0  0  0  0  0  0  0
    3.2294    3.3726    0.0000 H   0  0  0  0  0  0  0  0  0  0  0  0
    5.6186    5.1085    0.0000 H   0  0  0  0  0  0  0  0  0  0  0  0
    4.8904    5.4327    0.0000 H   0  0  0  0  0  0  0  0  0  0  0  0
    3.7023    5.2337    0.0000 H   0  0  0  0  0  0  0  0  0  0  0  0
    4.3785    1.6347    0.0000 H   0  0  0  0  0  0  0  0  0  0  0  0
    3.9804    0.8534    0.0000 H   0  0  0  0  0  0  0  0  0  0  0  0
    4.7616    0.4554    0.0000 H   0  0  0  0  0  0  0  0  0  0  0  0
    4.9272   -0.4237    0.0000 H   0  0  0  0  0  0  0  0  0  0  0  0
    7.7331   -0.4237    0.0000 H   0  0  0  0  0  0  0  0  0  0  0  0
    7.8374   -0.3480    0.0000 H   0  0  0  0  0  0  0  0  0  0  0  0
    8.7044    2.3206    0.0000 H   0  0  0  0  0  0  0  0  0  0  0  0
    5.1350   -2.9237    0.0000 H   0  0  0  0  0  0  0  0  0  0  0  0
    7.7331   -2.0437    0.0000 H   0  0  0  0  0  0  0  0  0  0  0  0
    4.0611   -1.9237    0.0000 H   0  0  0  0  0  0  0  0  0  0  0  0
   10.2452    1.8200    0.0000 H   0  0  0  0  0  0  0  0  0  0  0  0
   10.5820    0.2354    0.0000 H   0  0  0  0  0  0  0  0  0  0  0  0
    5.1541   -4.2707    0.0000 H   0  0  0  0  0  0  0  0  0  0  0  0
    6.0010   -4.0437    0.0000 H   0  0  0  0  0  0  0  0  0  0  0  0
    5.7741   -3.1968    0.0000 H   0  0  0  0  0  0  0  0  0  0  0  0
    4.2690   -5.0437    0.0000 H   0  0  0  0  0  0  0  0  0  0  0  0
    2.8660   -2.6137    0.0000 H   0  0  0  0  0  0  0  0  0  0  0  0
    2.8660   -5.8537    0.0000 H   0  0  0  0  0  0  0  0  0  0  0  0
    1.4631   -3.4237    0.0000 H   0  0  0  0  0  0  0  0  0  0  0  0
    1.4631   -5.0437    0.0000 H   0  0  0  0  0  0  0  0  0  0  0  0
  1 31  1  0  0  0  0
  2 31  1  0  0  0  0
  3 31  1  0  0  0  0
  4 13  1  0  0  0  0
  4 14  1  0  0  0  0
  4 47  1  0  0  0  0
  5 12  1  0  0  0  0
  5 15  1  0  0  0  0
  5 17  1  0  0  0  0
  6 12  2  0  0  0  0
  6 16  1  0  0  0  0
  7 24  1  0  0  0  0
 26  7  1  1  0  0  0
  7 57  1  0  0  0  0
  8 24  2  0  0  0  0
  8 27  1  0  0  0  0
  9 10  1  0  0  0  0
  9 11  1  0  0  0  0
  9 12  1  0  0  0  0
  9 38  1  0  0  0  0
 10 13  1  0  0  0  0
 10 39  1  0  0  0  0
 10 40  1  0  0  0  0
 11 14  1  0  0  0  0
 11 41  1  0  0  0  0
 11 42  1  0  0  0  0
 13 43  1  0  0  0  0
 13 44  1  0  0  0  0
 14 45  1  0  0  0  0
 14 46  1  0  0  0  0
 15 16  2  0  0  0  0
 15 18  1  0  0  0  0
 16 19  1  0  0  0  0
 17 48  1  0  0  0  0
 17 49  1  0  0  0  0
 17 50  1  0  0  0  0
 18 20  2  0  0  0  0
 18 21  1  0  0  0  0
 19 22  2  0  0  0  0
 19 23  1  0  0  0  0
 20 24  1  0  0  0  0
 20 51  1  0  0  0  0
 21 27  2  0  0  0  0
 21 52  1  0  0  0  0
 22 25  1  0  0  0  0
 22 53  1  0  0  0  0
 23 28  2  0  0  0  0
 23 54  1  0  0  0  0
 25 29  2  0  0  0  0
 25 31  1  0  0  0  0
 26 30  1  0  0  0  0
 26 32  1  0  0  0  0
 26 55  1  0  0  0  0
 27 56  1  0  0  0  0
 28 29  1  0  0  0  0
 28 58  1  0  0  0  0
 29 59  1  0  0  0  0
 30 33  2  0  0  0  0
 30 34  1  0  0  0  0
 32 60  1  0  0  0  0
 32 61  1  0  0  0  0
 32 62  1  0  0  0  0
 33 35  1  0  0  0  0
 33 63  1  0  0  0  0
 34 36  2  0  0  0  0
 34 64  1  0  0  0  0
 35 37  2  0  0  0  0
 35 65  1  0  0  0  0
 36 37  1  0  0  0  0
 36 66  1  0  0  0  0
 37 67  1  0  0  0  0
M  END
> <PUBCHEM_COMPOUND_CID>
9806182

> <PUBCHEM_COMPOUND_CANONICALIZED>
1

> <PUBCHEM_CACTVS_COMPLEXITY>
708

> <PUBCHEM_CACTVS_HBOND_ACCEPTOR>
7

> <PUBCHEM_CACTVS_HBOND_DONOR>
2

> <PUBCHEM_CACTVS_ROTATABLE_BOND>
6

> <PUBCHEM_CACTVS_SUBSKEYS>
AAADceB7gYAAAAAAAAAAAAAAAAAAAWAAAAA8eIEAAAAAAAAB9AAAHQAQAAAADSjBHxQ/sJfMEACgAzZnZACCgC0xEqAJ2KA4dJiIaOLAmZGUIAhokALIyCcQgMAOAAACAAAAAAAAAAQAAAAAAAAAAAAAAA==

> <PUBCHEM_IUPAC_OPENEYE_NAME>
4-[3-methyl-2-(4-piperidyl)-5-[3-(trifluoromethyl)phenyl]imidazol-4-yl]-N-[(1S)-1-phenylethyl]pyridin-2-amine

> <PUBCHEM_IUPAC_CAS_NAME>
4-[3-methyl-2-(4-piperidinyl)-5-[3-(trifluoromethyl)phenyl]-4-imidazolyl]-N-[(1S)-1-phenylethyl]-2-pyridinamine

> <PUBCHEM_IUPAC_NAME_MARKUP>
4-[3-methyl-2-piperidin-4-yl-5-[3-(trifluoromethyl)phenyl]imidazol-4-yl]-<I>N</I>-[(1<I>S</I>)-1-phenylethyl]pyridin-2-amine

> <PUBCHEM_IUPAC_NAME>
4-[3-methyl-2-piperidin-4-yl-5-[3-(trifluoromethyl)phenyl]imidazol-4-yl]-N-[(1S)-1-phenylethyl]pyridin-2-amine

> <PUBCHEM_IUPAC_SYSTEMATIC_NAME>
4-[3-methyl-2-piperidin-4-yl-5-[3-(trifluoromethyl)phenyl]imidazol-4-yl]-N-[(1S)-1-phenylethyl]pyridin-2-amine

> <PUBCHEM_IUPAC_TRADITIONAL_NAME>
[4-[3-methyl-2-(4-piperidyl)-5-[3-(trifluoromethyl)phenyl]imidazol-4-yl]-2-pyridyl]-[(1S)-1-phenylethyl]amine

> <PUBCHEM_IUPAC_INCHI>
InChI=1S/C29H30F3N5/c1-19(20-7-4-3-5-8-20)35-25-18-23(13-16-34-25)27-26(22-9-6-10-24(17-22)29(30,31)32)36-28(37(27)2)21-11-14-33-15-12-21/h3-10,13,16-19,21,33H,11-12,14-15H2,1-2H3,(H,34,35)/t19-/m0/s1

> <PUBCHEM_IUPAC_INCHIKEY>
ZLQKJFNLHHGAQF-IBGZPJMESA-N

> <PUBCHEM_XLOGP3_AA>
5.5

> <PUBCHEM_EXACT_MASS>
505.24533046

> <PUBCHEM_MOLECULAR_FORMULA>
C29H30F3N5

> <PUBCHEM_MOLECULAR_WEIGHT>
505.6

> <PUBCHEM_SMILES>
C[C@@H](C1=CC=CC=C1)NC2=NC=CC(=C2)C3=C(N=C(N3C)C4CCNCC4)C5=CC(=CC=C5)C(F)(F)F

> <PUBCHEM_OPENEYE_CAN_SMILES>
CC(C1=CC=CC=C1)NC2=NC=CC(=C2)C3=C(N=C(N3C)C4CCNCC4)C5=CC(=CC=C5)C(F)(F)F

> <PUBCHEM_OPENEYE_ISO_SMILES>
C[C@@H](C1=CC=CC=C1)NC2=NC=CC(=C2)C3=C(N=C(N3C)C4CCNCC4)C5=CC(=CC=C5)C(F)(F)F

> <PUBCHEM_CACTVS_TPSA>
54.8

> <PUBCHEM_MONOISOTOPIC_WEIGHT>
505.24533046

> <PUBCHEM_TOTAL_CHARGE>
0

> <PUBCHEM_HEAVY_ATOM_COUNT>
37

> <PUBCHEM_ATOM_DEF_STEREO_COUNT>
1

> <PUBCHEM_ATOM_UDEF_STEREO_COUNT>
0

> <PUBCHEM_BOND_DEF_STEREO_COUNT>
0

> <PUBCHEM_BOND_UDEF_STEREO_COUNT>
0

> <PUBCHEM_ISOTOPIC_ATOM_COUNT>
0

> <PUBCHEM_COMPONENT_COUNT>
1

> <PUBCHEM_CACTVS_TAUTO_COUNT>
-1

> <PUBCHEM_COORDINATE_TYPE>
1
5
255

> <PUBCHEM_BONDANNOTATIONS>
15  16  8
18  20  8
18  21  8
19  22  8
19  23  8
20  24  8
21  27  8
22  25  8
23  28  8
25  29  8
28  29  8
30  33  8
30  34  8
33  35  8
34  36  8
35  37  8
36  37  8
5  12  8
5  15  8
6  12  8
6  16  8
26  7  5
8  24  8
8  27  8

$$$$
