448014
  -OEChem-03202505052D

 33 34  0     0  0  0  0  0  0999 V2000
    3.7891    2.7071    0.0000 S   0  0  0  0  0  0  0  0  0  0  0  0
    2.8660   -4.8807    0.0000 O   0  0  0  0  0  0  0  0  0  0  0  0
    2.8660    1.1193    0.0000 O   0  0  0  0  0  0  0  0  0  0  0  0
    3.9170    5.3807    0.0000 O   0  5  0  0  0  0  0  0  0  0  0  0
    2.5158    4.3626    0.0000 O   0  0  0  0  0  0  0  0  0  0  0  0
    3.7320   -0.3807    0.0000 N   0  0  0  0  0  0  0  0  0  0  0  0
    4.5981    1.1193    0.0000 N   0  0  0  0  0  0  0  0  0  0  0  0
    5.4071    2.7071    0.0000 N   0  0  0  0  0  0  0  0  0  0  0  0
    3.5103    4.4672    0.0000 N   0  3  0  0  0  0  0  0  0  0  0  0
    2.8660   -1.8807    0.0000 C   0  0  0  0  0  0  0  0  0  0  0  0
    2.8660   -0.8807    0.0000 C   0  0  0  0  0  0  0  0  0  0  0  0
    3.7320   -2.3807    0.0000 C   0  0  0  0  0  0  0  0  0  0  0  0
    2.0000   -2.3807    0.0000 C   0  0  0  0  0  0  0  0  0  0  0  0
    2.8660   -3.8807    0.0000 C   0  0  0  0  0  0  0  0  0  0  0  0
    3.7320   -3.3807    0.0000 C   0  0  0  0  0  0  0  0  0  0  0  0
    2.0000   -3.3807    0.0000 C   0  0  0  0  0  0  0  0  0  0  0  0
    3.7320    0.6193    0.0000 C   0  0  0  0  0  0  0  0  0  0  0  0
    4.5981    2.1193    0.0000 C   0  0  0  0  0  0  0  0  0  0  0  0
    4.0981    3.6581    0.0000 C   0  0  0  0  0  0  0  0  0  0  0  0
    5.0981    3.6581    0.0000 C   0  0  0  0  0  0  0  0  0  0  0  0
    2.0000   -5.3807    0.0000 C   0  0  0  0  0  0  0  0  0  0  0  0
    2.6540   -0.2981    0.0000 H   0  0  0  0  0  0  0  0  0  0  0  0
    2.2554   -0.9884    0.0000 H   0  0  0  0  0  0  0  0  0  0  0  0
    4.2690   -2.0707    0.0000 H   0  0  0  0  0  0  0  0  0  0  0  0
    1.4631   -2.0707    0.0000 H   0  0  0  0  0  0  0  0  0  0  0  0
    4.2690   -0.6907    0.0000 H   0  0  0  0  0  0  0  0  0  0  0  0
    4.2690   -3.6907    0.0000 H   0  0  0  0  0  0  0  0  0  0  0  0
    1.4631   -3.6907    0.0000 H   0  0  0  0  0  0  0  0  0  0  0  0
    5.1350    0.8093    0.0000 H   0  0  0  0  0  0  0  0  0  0  0  0
    5.4625    4.1597    0.0000 H   0  0  0  0  0  0  0  0  0  0  0  0
    1.6900   -4.8438    0.0000 H   0  0  0  0  0  0  0  0  0  0  0  0
    1.4631   -5.6907    0.0000 H   0  0  0  0  0  0  0  0  0  0  0  0
    2.3100   -5.9176    0.0000 H   0  0  0  0  0  0  0  0  0  0  0  0
  1 18  1  0  0  0  0
  1 19  1  0  0  0  0
  2 14  1  0  0  0  0
  2 21  1  0  0  0  0
  3 17  2  0  0  0  0
  4  9  1  0  0  0  0
  5  9  2  0  0  0  0
  6 11  1  0  0  0  0
  6 17  1  0  0  0  0
  6 26  1  0  0  0  0
  7 17  1  0  0  0  0
  7 18  1  0  0  0  0
  7 29  1  0  0  0  0
  8 18  2  0  0  0  0
  8 20  1  0  0  0  0
  9 19  1  0  0  0  0
 10 11  1  0  0  0  0
 10 12  2  0  0  0  0
 10 13  1  0  0  0  0
 11 22  1  0  0  0  0
 11 23  1  0  0  0  0
 12 15  1  0  0  0  0
 12 24  1  0  0  0  0
 13 16  2  0  0  0  0
 13 25  1  0  0  0  0
 14 15  2  0  0  0  0
 14 16  1  0  0  0  0
 15 27  1  0  0  0  0
 16 28  1  0  0  0  0
 19 20  2  0  0  0  0
 20 30  1  0  0  0  0
 21 31  1  0  0  0  0
 21 32  1  0  0  0  0
 21 33  1  0  0  0  0
M  CHG  2   4  -1   9   1
M  END
> <PUBCHEM_COMPOUND_CID>
448014

> <PUBCHEM_COMPOUND_CANONICALIZED>
1

> <PUBCHEM_CACTVS_COMPLEXITY>
371

> <PUBCHEM_CACTVS_HBOND_ACCEPTOR>
6

> <PUBCHEM_CACTVS_HBOND_DONOR>
2

> <PUBCHEM_CACTVS_ROTATABLE_BOND>
4

> <PUBCHEM_CACTVS_SUBSKEYS>
AAADccBzuABAAAAAAAAAAAAAAAAAAWAAAAAwAAAAAAAAAAABwAAAHgQUAAAADATB2gY/l5LYVAitAjBndwCC+KlxOjlpyIwOPIqMZiKEsRuUMChsx5MIqCeQ0AIOIAAAAAAAAABAAAAAAAAAAAAAAAAAAA==

> <PUBCHEM_IUPAC_OPENEYE_NAME>
1-[(4-methoxyphenyl)methyl]-3-(5-nitrothiazol-2-yl)urea

> <PUBCHEM_IUPAC_CAS_NAME>
1-[(4-methoxyphenyl)methyl]-3-(5-nitro-2-thiazolyl)urea

> <PUBCHEM_IUPAC_NAME_MARKUP>
1-[(4-methoxyphenyl)methyl]-3-(5-nitro-1,3-thiazol-2-yl)urea

> <PUBCHEM_IUPAC_NAME>
1-[(4-methoxyphenyl)methyl]-3-(5-nitro-1,3-thiazol-2-yl)urea

> <PUBCHEM_IUPAC_SYSTEMATIC_NAME>
1-[(4-methoxyphenyl)methyl]-3-(5-nitro-1,3-thiazol-2-yl)urea

> <PUBCHEM_IUPAC_TRADITIONAL_NAME>
1-(5-nitrothiazol-2-yl)-3-p-anisyl-urea

> <PUBCHEM_IUPAC_INCHI>
InChI=1S/C12H12N4O4S/c1-20-9-4-2-8(3-5-9)6-13-11(17)15-12-14-7-10(21-12)16(18)19/h2-5,7H,6H2,1H3,(H2,13,14,15,17)

> <PUBCHEM_IUPAC_INCHIKEY>
YAEMHJKFIIIULI-UHFFFAOYSA-N

> <PUBCHEM_XLOGP3>
2.6

> <PUBCHEM_EXACT_MASS>
308.05792605

> <PUBCHEM_MOLECULAR_FORMULA>
C12H12N4O4S

> <PUBCHEM_MOLECULAR_WEIGHT>
308.32

> <PUBCHEM_SMILES>
COC1=CC=C(C=C1)CNC(=O)NC2=NC=C(S2)[N+](=O)[O-]

> <PUBCHEM_OPENEYE_CAN_SMILES>
COC1=CC=C(C=C1)CNC(=O)NC2=NC=C(S2)[N+](=O)[O-]

> <PUBCHEM_OPENEYE_ISO_SMILES>
COC1=CC=C(C=C1)CNC(=O)NC2=NC=C(S2)[N+](=O)[O-]

> <PUBCHEM_CACTVS_TPSA>
137

> <PUBCHEM_MONOISOTOPIC_WEIGHT>
308.05792605

> <PUBCHEM_TOTAL_CHARGE>
0

> <PUBCHEM_HEAVY_ATOM_COUNT>
21

> <PUBCHEM_ATOM_DEF_STEREO_COUNT>
0

> <PUBCHEM_ATOM_UDEF_STEREO_COUNT>
0

> <PUBCHEM_BOND_DEF_STEREO_COUNT>
0

> <PUBCHEM_BOND_UDEF_STEREO_COUNT>
0

> <PUBCHEM_ISOTOPIC_ATOM_COUNT>
0

> <PUBCHEM_COMPONENT_COUNT>
1

> <PUBCHEM_CACTVS_TAUTO_COUNT>
-1

> <PUBCHEM_COORDINATE_TYPE>
1
5
255

> <PUBCHEM_BONDANNOTATIONS>
1  18  8
1  19  8
10  12  8
10  13  8
12  15  8
13  16  8
14  15  8
14  16  8
19  20  8
8  18  8
8  20  8

$$$$
