25167078
  -OEChem-03202500272D

 36 39  0     0  0  0  0  0  0999 V2000
    4.7092   -0.9471    0.0000 S   0  0  0  0  0  0  0  0  0  0  0  0
    4.8025    0.8324    0.0000 N   0  0  0  0  0  0  0  0  0  0  0  0
    9.8362   -3.0883    0.0000 N   0  0  0  0  0  0  0  0  0  0  0  0
    6.1874   -0.2890    0.0000 N   0  0  0  0  0  0  0  0  0  0  0  0
   10.4198   -2.2835    0.0000 N   0  0  0  0  0  0  0  0  0  0  0  0
    7.1580   -1.7835    0.0000 C   0  0  0  0  0  0  0  0  0  0  0  0
    8.8900   -1.7835    0.0000 C   0  0  0  0  0  0  0  0  0  0  0  0
    8.8900   -2.7835    0.0000 C   0  0  0  0  0  0  0  0  0  0  0  0
    8.0240   -1.2835    0.0000 C   0  0  0  0  0  0  0  0  0  0  0  0
    6.2919   -1.2835    0.0000 C   0  0  0  0  0  0  0  0  0  0  0  0
    7.1580   -2.7835    0.0000 C   0  0  0  0  0  0  0  0  0  0  0  0
    8.0240   -3.2835    0.0000 C   0  0  0  0  0  0  0  0  0  0  0  0
    3.8080    0.9370    0.0000 C   0  0  0  0  0  0  0  0  0  0  0  0
    3.4013    1.8505    0.0000 C   0  0  0  0  0  0  0  0  0  0  0  0
    5.2092   -0.0811    0.0000 C   0  0  0  0  0  0  0  0  0  0  0  0
    9.8362   -1.4788    0.0000 C   0  0  0  0  0  0  0  0  0  0  0  0
    5.3784   -1.6903    0.0000 C   0  0  0  0  0  0  0  0  0  0  0  0
    3.9890    2.6595    0.0000 C   0  0  0  0  0  0  0  0  0  0  0  0
    2.4067    1.9550    0.0000 C   0  0  0  0  0  0  0  0  0  0  0  0
    3.5823    3.5731    0.0000 C   0  0  0  0  0  0  0  0  0  0  0  0
    2.0000    2.8686    0.0000 C   0  0  0  0  0  0  0  0  0  0  0  0
    2.5878    3.6776    0.0000 C   0  0  0  0  0  0  0  0  0  0  0  0
    8.0240   -0.6635    0.0000 H   0  0  0  0  0  0  0  0  0  0  0  0
    6.6210   -3.0935    0.0000 H   0  0  0  0  0  0  0  0  0  0  0  0
    3.2064    0.7870    0.0000 H   0  0  0  0  0  0  0  0  0  0  0  0
    3.8512    0.3185    0.0000 H   0  0  0  0  0  0  0  0  0  0  0  0
    8.0240   -3.9035    0.0000 H   0  0  0  0  0  0  0  0  0  0  0  0
    5.1669    1.3340    0.0000 H   0  0  0  0  0  0  0  0  0  0  0  0
   10.0288   -0.8895    0.0000 H   0  0  0  0  0  0  0  0  0  0  0  0
   10.0288   -3.6776    0.0000 H   0  0  0  0  0  0  0  0  0  0  0  0
    5.2495   -2.2967    0.0000 H   0  0  0  0  0  0  0  0  0  0  0  0
    4.6056    2.5947    0.0000 H   0  0  0  0  0  0  0  0  0  0  0  0
    2.0423    1.4534    0.0000 H   0  0  0  0  0  0  0  0  0  0  0  0
    3.9467    4.0747    0.0000 H   0  0  0  0  0  0  0  0  0  0  0  0
    1.3834    2.9334    0.0000 H   0  0  0  0  0  0  0  0  0  0  0  0
    2.3356    4.2440    0.0000 H   0  0  0  0  0  0  0  0  0  0  0  0
  1 15  1  0  0  0  0
  1 17  1  0  0  0  0
  2 13  1  0  0  0  0
  2 15  1  0  0  0  0
  2 28  1  0  0  0  0
  3  5  1  0  0  0  0
  3  8  1  0  0  0  0
  3 30  1  0  0  0  0
  4 10  1  0  0  0  0
  4 15  2  0  0  0  0
  5 16  2  0  0  0  0
  6  9  2  0  0  0  0
  6 10  1  0  0  0  0
  6 11  1  0  0  0  0
  7  8  2  0  0  0  0
  7  9  1  0  0  0  0
  7 16  1  0  0  0  0
  8 12  1  0  0  0  0
  9 23  1  0  0  0  0
 10 17  2  0  0  0  0
 11 12  2  0  0  0  0
 11 24  1  0  0  0  0
 12 27  1  0  0  0  0
 13 14  1  0  0  0  0
 13 25  1  0  0  0  0
 13 26  1  0  0  0  0
 14 18  2  0  0  0  0
 14 19  1  0  0  0  0
 16 29  1  0  0  0  0
 17 31  1  0  0  0  0
 18 20  1  0  0  0  0
 18 32  1  0  0  0  0
 19 21  2  0  0  0  0
 19 33  1  0  0  0  0
 20 22  2  0  0  0  0
 20 34  1  0  0  0  0
 21 22  1  0  0  0  0
 21 35  1  0  0  0  0
 22 36  1  0  0  0  0
M  END
> <PUBCHEM_COMPOUND_CID>
25167078

> <PUBCHEM_COMPOUND_CANONICALIZED>
1

> <PUBCHEM_CACTVS_COMPLEXITY>
361

> <PUBCHEM_CACTVS_HBOND_ACCEPTOR>
4

> <PUBCHEM_CACTVS_HBOND_DONOR>
2

> <PUBCHEM_CACTVS_ROTATABLE_BOND>
4

> <PUBCHEM_CACTVS_SUBSKEYS>
AAADccB7gABAAAAAAAAAAAAAAAAAAWLAAAAwYAAAAAAAAFgB/AAAHAQYAAAADAjFXgS90fLrEAimAzRnZACS9KlhijkZubQ4ZJiIIKKg2dGEpAhomAIIyCcQgMAOCAACAAACAAAQAAQAAAQAAAAAAAAAAA==

> <PUBCHEM_IUPAC_OPENEYE_NAME>
N-benzyl-4-(1H-indazol-5-yl)thiazol-2-amine

> <PUBCHEM_IUPAC_CAS_NAME>
4-(1H-indazol-5-yl)-N-(phenylmethyl)-2-thiazolamine

> <PUBCHEM_IUPAC_NAME_MARKUP>
<I>N</I>-benzyl-4-(1<I>H</I>-indazol-5-yl)-1,3-thiazol-2-amine

> <PUBCHEM_IUPAC_NAME>
N-benzyl-4-(1H-indazol-5-yl)-1,3-thiazol-2-amine

> <PUBCHEM_IUPAC_SYSTEMATIC_NAME>
4-(1H-indazol-5-yl)-N-(phenylmethyl)-1,3-thiazol-2-amine

> <PUBCHEM_IUPAC_TRADITIONAL_NAME>
benzyl-[4-(1H-indazol-5-yl)thiazol-2-yl]amine

> <PUBCHEM_IUPAC_INCHI>
InChI=1S/C17H14N4S/c1-2-4-12(5-3-1)9-18-17-20-16(11-22-17)13-6-7-15-14(8-13)10-19-21-15/h1-8,10-11H,9H2,(H,18,20)(H,19,21)

> <PUBCHEM_IUPAC_INCHIKEY>
QVWKRMXAYICTFS-UHFFFAOYSA-N

> <PUBCHEM_XLOGP3_AA>
4.1

> <PUBCHEM_EXACT_MASS>
306.09391764

> <PUBCHEM_MOLECULAR_FORMULA>
C17H14N4S

> <PUBCHEM_MOLECULAR_WEIGHT>
306.4

> <PUBCHEM_SMILES>
C1=CC=C(C=C1)CNC2=NC(=CS2)C3=CC4=C(C=C3)NN=C4

> <PUBCHEM_OPENEYE_CAN_SMILES>
C1=CC=C(C=C1)CNC2=NC(=CS2)C3=CC4=C(C=C3)NN=C4

> <PUBCHEM_OPENEYE_ISO_SMILES>
C1=CC=C(C=C1)CNC2=NC(=CS2)C3=CC4=C(C=C3)NN=C4

> <PUBCHEM_CACTVS_TPSA>
81.8

> <PUBCHEM_MONOISOTOPIC_WEIGHT>
306.09391764

> <PUBCHEM_TOTAL_CHARGE>
0

> <PUBCHEM_HEAVY_ATOM_COUNT>
22

> <PUBCHEM_ATOM_DEF_STEREO_COUNT>
0

> <PUBCHEM_ATOM_UDEF_STEREO_COUNT>
0

> <PUBCHEM_BOND_DEF_STEREO_COUNT>
0

> <PUBCHEM_BOND_UDEF_STEREO_COUNT>
0

> <PUBCHEM_ISOTOPIC_ATOM_COUNT>
0

> <PUBCHEM_COMPONENT_COUNT>
1

> <PUBCHEM_CACTVS_TAUTO_COUNT>
-1

> <PUBCHEM_COORDINATE_TYPE>
1
5
255

> <PUBCHEM_BONDANNOTATIONS>
1  15  8
1  17  8
10  17  8
11  12  8
14  18  8
14  19  8
18  20  8
19  21  8
20  22  8
21  22  8
3  5  8
3  8  8
4  10  8
4  15  8
5  16  8
6  11  8
6  9  8
7  16  8
7  8  8
7  9  8
8  12  8

$$$$
