49830824
  -OEChem-03202500542D

 52 55  0     1  0  0  0  0  0999 V2000
    5.2531    2.4849    0.0000 O   0  0  0  0  0  0  0  0  0  0  0  0
   10.5028    1.8212    0.0000 O   0  0  0  0  0  0  0  0  0  0  0  0
    5.6103    0.7901    0.0000 N   0  0  0  0  0  0  0  0  0  0  0  0
    6.8994    1.9468    0.0000 N   0  0  0  0  0  0  0  0  0  0  0  0
    4.6783   -3.6710    0.0000 N   0  0  0  0  0  0  0  0  0  0  0  0
    2.8660   -3.8662    0.0000 N   0  0  0  0  0  0  0  0  0  0  0  0
    4.3211   -0.3667    0.0000 C   0  0  0  0  0  0  0  0  0  0  0  0
    4.6318    0.5838    0.0000 C   0  0  0  0  0  0  0  0  0  0  0  0
    4.9889   -1.1110    0.0000 C   0  0  0  0  0  0  0  0  0  0  0  0
    6.2781    0.0458    0.0000 C   0  0  0  0  0  0  0  0  0  0  0  0
    5.9674   -0.9048    0.0000 C   0  0  0  0  0  0  0  0  0  0  0  0
    4.6783   -2.0615    0.0000 C   0  0  0  0  0  0  0  0  0  0  0  0
    5.9209    1.7406    0.0000 C   0  0  0  0  0  0  0  0  0  0  0  0
    3.7320   -2.3662    0.0000 C   0  0  0  0  0  0  0  0  0  0  0  0
    7.2101    2.8973    0.0000 C   0  0  3  0  0  0  0  0  0  0  0  0
    5.2619   -2.8662    0.0000 C   0  0  0  0  0  0  0  0  0  0  0  0
    3.7320   -3.3662    0.0000 C   0  0  0  0  0  0  0  0  0  0  0  0
    8.1886    3.1035    0.0000 C   0  0  0  0  0  0  0  0  0  0  0  0
    6.5422    3.6416    0.0000 C   0  0  0  0  0  0  0  0  0  0  0  0
    2.8660   -1.8662    0.0000 C   0  0  0  0  0  0  0  0  0  0  0  0
    8.8564    2.3592    0.0000 C   0  0  0  0  0  0  0  0  0  0  0  0
    8.4993    4.0541    0.0000 C   0  0  0  0  0  0  0  0  0  0  0  0
    2.0000   -2.3662    0.0000 C   0  0  0  0  0  0  0  0  0  0  0  0
    2.0000   -3.3662    0.0000 C   0  0  0  0  0  0  0  0  0  0  0  0
    9.8349    2.5655    0.0000 C   0  0  0  0  0  0  0  0  0  0  0  0
    9.4778    4.2603    0.0000 C   0  0  0  0  0  0  0  0  0  0  0  0
   10.1456    3.5160    0.0000 C   0  0  0  0  0  0  0  0  0  0  0  0
   11.4813    2.0274    0.0000 C   0  0  0  0  0  0  0  0  0  0  0  0
    3.7742   -0.0747    0.0000 H   0  0  0  0  0  0  0  0  0  0  0  0
    3.9385   -0.8546    0.0000 H   0  0  0  0  0  0  0  0  0  0  0  0
    4.6112    1.2035    0.0000 H   0  0  0  0  0  0  0  0  0  0  0  0
    4.0179    0.6712    0.0000 H   0  0  0  0  0  0  0  0  0  0  0  0
    6.8250   -0.2463    0.0000 H   0  0  0  0  0  0  0  0  0  0  0  0
    6.6607    0.5337    0.0000 H   0  0  0  0  0  0  0  0  0  0  0  0
    6.3815   -1.3662    0.0000 H   0  0  0  0  0  0  0  0  0  0  0  0
    7.6242    2.4359    0.0000 H   0  0  0  0  0  0  0  0  0  0  0  0
    7.3135    1.4853    0.0000 H   0  0  0  0  0  0  0  0  0  0  0  0
    5.8819   -2.8662    0.0000 H   0  0  0  0  0  0  0  0  0  0  0  0
    4.8709   -4.2603    0.0000 H   0  0  0  0  0  0  0  0  0  0  0  0
    7.0037    4.0557    0.0000 H   0  0  0  0  0  0  0  0  0  0  0  0
    6.1282    4.1031    0.0000 H   0  0  0  0  0  0  0  0  0  0  0  0
    6.0808    3.2276    0.0000 H   0  0  0  0  0  0  0  0  0  0  0  0
    2.8660   -1.2462    0.0000 H   0  0  0  0  0  0  0  0  0  0  0  0
    8.6638    1.7699    0.0000 H   0  0  0  0  0  0  0  0  0  0  0  0
    8.0852    4.5155    0.0000 H   0  0  0  0  0  0  0  0  0  0  0  0
    1.4631   -2.0562    0.0000 H   0  0  0  0  0  0  0  0  0  0  0  0
    1.4631   -3.6762    0.0000 H   0  0  0  0  0  0  0  0  0  0  0  0
    9.6704    4.8496    0.0000 H   0  0  0  0  0  0  0  0  0  0  0  0
   10.7523    3.6438    0.0000 H   0  0  0  0  0  0  0  0  0  0  0  0
   11.6091    1.4207    0.0000 H   0  0  0  0  0  0  0  0  0  0  0  0
   12.0880    2.1552    0.0000 H   0  0  0  0  0  0  0  0  0  0  0  0
   11.3534    2.6340    0.0000 H   0  0  0  0  0  0  0  0  0  0  0  0
  1 13  2  0  0  0  0
  2 25  1  0  0  0  0
  2 28  1  0  0  0  0
  3  8  1  0  0  0  0
  3 10  1  0  0  0  0
  3 13  1  0  0  0  0
  4 13  1  0  0  0  0
  4 15  1  0  0  0  0
  4 37  1  0  0  0  0
  5 16  1  0  0  0  0
  5 17  1  0  0  0  0
  5 39  1  0  0  0  0
  6 17  1  0  0  0  0
  6 24  2  0  0  0  0
  7  8  1  0  0  0  0
  7  9  1  0  0  0  0
  7 29  1  0  0  0  0
  7 30  1  0  0  0  0
  8 31  1  0  0  0  0
  8 32  1  0  0  0  0
  9 11  2  0  0  0  0
  9 12  1  0  0  0  0
 10 11  1  0  0  0  0
 10 33  1  0  0  0  0
 10 34  1  0  0  0  0
 11 35  1  0  0  0  0
 12 14  1  0  0  0  0
 12 16  2  0  0  0  0
 14 17  2  0  0  0  0
 14 20  1  0  0  0  0
 15 18  1  0  0  0  0
 15 19  1  0  0  0  0
 15 36  1  0  0  0  0
 16 38  1  0  0  0  0
 18 21  2  0  0  0  0
 18 22  1  0  0  0  0
 19 40  1  0  0  0  0
 19 41  1  0  0  0  0
 19 42  1  0  0  0  0
 20 23  2  0  0  0  0
 20 43  1  0  0  0  0
 21 25  1  0  0  0  0
 21 44  1  0  0  0  0
 22 26  2  0  0  0  0
 22 45  1  0  0  0  0
 23 24  1  0  0  0  0
 23 46  1  0  0  0  0
 24 47  1  0  0  0  0
 25 27  2  0  0  0  0
 26 27  1  0  0  0  0
 26 48  1  0  0  0  0
 27 49  1  0  0  0  0
 28 50  1  0  0  0  0
 28 51  1  0  0  0  0
 28 52  1  0  0  0  0
M  END
> <PUBCHEM_COMPOUND_CID>
49830824

> <PUBCHEM_COMPOUND_CANONICALIZED>
1

> <PUBCHEM_CACTVS_COMPLEXITY>
581

> <PUBCHEM_CACTVS_HBOND_ACCEPTOR>
3

> <PUBCHEM_CACTVS_HBOND_DONOR>
2

> <PUBCHEM_CACTVS_ROTATABLE_BOND>
4

> <PUBCHEM_CACTVS_SUBSKEYS>
AAADceB7sAAAAAAAAAAAAAAAAAAAAWAAAAA8QIAAAAAAAFgB/AAAHgAQAAAADCzBmwY/tt/JlACoAjJndACCiCmxIqAJ2aA+bJiMLuLEuZuEMChs1hPI6CewwLAOgAABAAAAAAAAAAIAAAAAAAAAAAAAAA==

> <PUBCHEM_IUPAC_OPENEYE_NAME>
N-[1-(3-methoxyphenyl)ethyl]-4-(1H-pyrrolo[2,3-b]pyridin-3-yl)-3,6-dihydro-2H-pyridine-1-carboxamide

> <PUBCHEM_IUPAC_CAS_NAME>
N-[1-(3-methoxyphenyl)ethyl]-4-(1H-pyrrolo[2,3-b]pyridin-3-yl)-3,6-dihydro-2H-pyridine-1-carboxamide

> <PUBCHEM_IUPAC_NAME_MARKUP>
<I>N</I>-[1-(3-methoxyphenyl)ethyl]-4-(1<I>H</I>-pyrrolo[2,3-b]pyridin-3-yl)-3,6-dihydro-2<I>H</I>-pyridine-1-carboxamide

> <PUBCHEM_IUPAC_NAME>
N-[1-(3-methoxyphenyl)ethyl]-4-(1H-pyrrolo[2,3-b]pyridin-3-yl)-3,6-dihydro-2H-pyridine-1-carboxamide

> <PUBCHEM_IUPAC_SYSTEMATIC_NAME>
N-[1-(3-methoxyphenyl)ethyl]-4-(1H-pyrrolo[2,3-b]pyridin-3-yl)-3,6-dihydro-2H-pyridine-1-carboxamide

> <PUBCHEM_IUPAC_TRADITIONAL_NAME>
N-[1-(3-methoxyphenyl)ethyl]-4-(1H-pyrrolo[2,3-b]pyridin-3-yl)-3,6-dihydro-2H-pyridine-1-carboxamide

> <PUBCHEM_IUPAC_INCHI>
InChI=1S/C22H24N4O2/c1-15(17-5-3-6-18(13-17)28-2)25-22(27)26-11-8-16(9-12-26)20-14-24-21-19(20)7-4-10-23-21/h3-8,10,13-15H,9,11-12H2,1-2H3,(H,23,24)(H,25,27)

> <PUBCHEM_IUPAC_INCHIKEY>
XSRHBCYNCKAFKS-UHFFFAOYSA-N

> <PUBCHEM_XLOGP3_AA>
2.7

> <PUBCHEM_EXACT_MASS>
376.18992602

> <PUBCHEM_MOLECULAR_FORMULA>
C22H24N4O2

> <PUBCHEM_MOLECULAR_WEIGHT>
376.5

> <PUBCHEM_SMILES>
CC(C1=CC(=CC=C1)OC)NC(=O)N2CCC(=CC2)C3=CNC4=C3C=CC=N4

> <PUBCHEM_OPENEYE_CAN_SMILES>
CC(C1=CC(=CC=C1)OC)NC(=O)N2CCC(=CC2)C3=CNC4=C3C=CC=N4

> <PUBCHEM_OPENEYE_ISO_SMILES>
CC(C1=CC(=CC=C1)OC)NC(=O)N2CCC(=CC2)C3=CNC4=C3C=CC=N4

> <PUBCHEM_CACTVS_TPSA>
70.3

> <PUBCHEM_MONOISOTOPIC_WEIGHT>
376.18992602

> <PUBCHEM_TOTAL_CHARGE>
0

> <PUBCHEM_HEAVY_ATOM_COUNT>
28

> <PUBCHEM_ATOM_DEF_STEREO_COUNT>
0

> <PUBCHEM_ATOM_UDEF_STEREO_COUNT>
1

> <PUBCHEM_BOND_DEF_STEREO_COUNT>
0

> <PUBCHEM_BOND_UDEF_STEREO_COUNT>
0

> <PUBCHEM_ISOTOPIC_ATOM_COUNT>
0

> <PUBCHEM_COMPONENT_COUNT>
1

> <PUBCHEM_CACTVS_TAUTO_COUNT>
-1

> <PUBCHEM_COORDINATE_TYPE>
1
5
255

> <PUBCHEM_BONDANNOTATIONS>
12  14  8
12  16  8
14  17  8
14  20  8
15  19  3
18  21  8
18  22  8
20  23  8
21  25  8
22  26  8
23  24  8
25  27  8
26  27  8
5  16  8
5  17  8
6  17  8
6  24  8

$$$$
