49831011
  -OEChem-03202502392D

 38 41  0     1  0  0  0  0  0999 V2000
    2.9176    2.1857    0.0000 O   0  0  0  0  0  0  0  0  0  0  0  0
    5.7568   -2.5054    0.0000 O   0  0  0  0  0  0  0  0  0  0  0  0
    4.6660   -0.8488    0.0000 N   0  0  0  0  0  0  0  0  0  0  0  0
    7.4730   -2.0468    0.0000 N   0  0  0  0  0  0  0  0  0  0  0  0
    9.2164    2.6140    0.0000 N   0  0  0  0  0  0  0  0  0  0  0  0
    2.9061    1.1858    0.0000 C   0  0  3  0  0  0  0  0  0  0  0  0
    2.0000    0.6720    0.0000 C   0  0  0  0  0  0  0  0  0  0  0  0
    2.0000   -0.3697    0.0000 C   0  0  0  0  0  0  0  0  0  0  0  0
    3.8000    0.6512    0.0000 C   0  0  0  0  0  0  0  0  0  0  0  0
    2.9061   -0.8835    0.0000 C   0  0  0  0  0  0  0  0  0  0  0  0
    6.3981   -0.8488    0.0000 C   0  0  3  0  0  0  0  0  0  0  0  0
    3.8000   -0.3488    0.0000 C   0  0  0  0  0  0  0  0  0  0  0  0
    5.5321   -0.3488    0.0000 C   0  0  0  0  0  0  0  0  0  0  0  0
    7.3059   -0.4437    0.0000 C   0  0  0  0  0  0  0  0  0  0  0  0
    4.6660    1.1511    0.0000 C   0  0  0  0  0  0  0  0  0  0  0  0
    5.5321    0.6512    0.0000 C   0  0  0  0  0  0  0  0  0  0  0  0
    6.5011   -1.8376    0.0000 C   0  0  0  0  0  0  0  0  0  0  0  0
    7.9737   -1.1880    0.0000 C   0  0  0  0  0  0  0  0  0  0  0  0
    7.6165    0.5068    0.0000 C   0  0  0  0  0  0  0  0  0  0  0  0
    8.9522   -0.9818    0.0000 C   0  0  0  0  0  0  0  0  0  0  0  0
    8.5950    0.7130    0.0000 C   0  0  0  0  0  0  0  0  0  0  0  0
    9.2629   -0.0313    0.0000 C   0  0  0  0  0  0  0  0  0  0  0  0
    8.9057    1.6635    0.0000 C   0  0  0  0  0  0  0  0  0  0  0  0
    2.3721    1.5010    0.0000 H   0  0  0  0  0  0  0  0  0  0  0  0
    1.7909    1.2557    0.0000 H   0  0  0  0  0  0  0  0  0  0  0  0
    1.3891    0.5659    0.0000 H   0  0  0  0  0  0  0  0  0  0  0  0
    1.3891   -0.2636    0.0000 H   0  0  0  0  0  0  0  0  0  0  0  0
    1.7909   -0.9534    0.0000 H   0  0  0  0  0  0  0  0  0  0  0  0
    2.5124   -1.3625    0.0000 H   0  0  0  0  0  0  0  0  0  0  0  0
    3.3107   -1.3533    0.0000 H   0  0  0  0  0  0  0  0  0  0  0  0
    5.8780   -1.1863    0.0000 H   0  0  0  0  0  0  0  0  0  0  0  0
    4.6660    1.7712    0.0000 H   0  0  0  0  0  0  0  0  0  0  0  0
    6.0690    0.9612    0.0000 H   0  0  0  0  0  0  0  0  0  0  0  0
    7.7232   -2.6140    0.0000 H   0  0  0  0  0  0  0  0  0  0  0  0
    7.2025    0.9683    0.0000 H   0  0  0  0  0  0  0  0  0  0  0  0
    2.3843    2.5019    0.0000 H   0  0  0  0  0  0  0  0  0  0  0  0
    9.3663   -1.4433    0.0000 H   0  0  0  0  0  0  0  0  0  0  0  0
    9.8696    0.0966    0.0000 H   0  0  0  0  0  0  0  0  0  0  0  0
  1  6  1  0  0  0  0
  1 36  1  0  0  0  0
  2 17  2  0  0  0  0
  3 12  1  0  0  0  0
  3 13  2  0  0  0  0
  4 17  1  0  0  0  0
  4 18  1  0  0  0  0
  4 34  1  0  0  0  0
  5 23  3  0  0  0  0
  6  7  1  0  0  0  0
  6  9  1  0  0  0  0
  6 24  1  0  0  0  0
  7  8  1  0  0  0  0
  7 25  1  0  0  0  0
  7 26  1  0  0  0  0
  8 10  1  0  0  0  0
  8 27  1  0  0  0  0
  8 28  1  0  0  0  0
  9 12  2  0  0  0  0
  9 15  1  0  0  0  0
 10 12  1  0  0  0  0
 10 29  1  0  0  0  0
 10 30  1  0  0  0  0
 11 13  1  0  0  0  0
 11 14  1  0  0  0  0
 11 17  1  0  0  0  0
 11 31  1  0  0  0  0
 13 16  1  0  0  0  0
 14 18  2  0  0  0  0
 14 19  1  0  0  0  0
 15 16  2  0  0  0  0
 15 32  1  0  0  0  0
 16 33  1  0  0  0  0
 18 20  1  0  0  0  0
 19 21  2  0  0  0  0
 19 35  1  0  0  0  0
 20 22  2  0  0  0  0
 20 37  1  0  0  0  0
 21 22  1  0  0  0  0
 21 23  1  0  0  0  0
 22 38  1  0  0  0  0
M  END
> <PUBCHEM_COMPOUND_CID>
49831011

> <PUBCHEM_COMPOUND_CANONICALIZED>
1

> <PUBCHEM_CACTVS_COMPLEXITY>
528

> <PUBCHEM_CACTVS_HBOND_ACCEPTOR>
4

> <PUBCHEM_CACTVS_HBOND_DONOR>
2

> <PUBCHEM_CACTVS_ROTATABLE_BOND>
1

> <PUBCHEM_CACTVS_SUBSKEYS>
AAADccB7MAAAAAAAAAAAAAAAAAAAAWAAAAA8YIAAAAAAAFixwAAAHgAQCAAADRyhngIwwJLIEgC4ByVyVACigCAhAiAImCEwbJgItvrA1ZGEcAhm1AHI2A+c2OOOiAACAAACAAAQAAQEABQAAAAAAAAAAA==

> <PUBCHEM_IUPAC_OPENEYE_NAME>
3-(5-hydroxy-5,6,7,8-tetrahydroquinolin-2-yl)-2-oxo-indoline-5-carbonitrile

> <PUBCHEM_IUPAC_CAS_NAME>
3-(5-hydroxy-5,6,7,8-tetrahydroquinolin-2-yl)-2-oxo-1,3-dihydroindole-5-carbonitrile

> <PUBCHEM_IUPAC_NAME_MARKUP>
3-(5-hydroxy-5,6,7,8-tetrahydroquinolin-2-yl)-2-oxo-1,3-dihydroindole-5-carbonitrile

> <PUBCHEM_IUPAC_NAME>
3-(5-hydroxy-5,6,7,8-tetrahydroquinolin-2-yl)-2-oxo-1,3-dihydroindole-5-carbonitrile

> <PUBCHEM_IUPAC_SYSTEMATIC_NAME>
2-oxidanylidene-3-(5-oxidanyl-5,6,7,8-tetrahydroquinolin-2-yl)-1,3-dihydroindole-5-carbonitrile

> <PUBCHEM_IUPAC_TRADITIONAL_NAME>
3-(5-hydroxy-5,6,7,8-tetrahydroquinolin-2-yl)-2-keto-indoline-5-carbonitrile

> <PUBCHEM_IUPAC_INCHI>
InChI=1S/C18H15N3O2/c19-9-10-4-6-14-12(8-10)17(18(23)21-14)15-7-5-11-13(20-15)2-1-3-16(11)22/h4-8,16-17,22H,1-3H2,(H,21,23)

> <PUBCHEM_IUPAC_INCHIKEY>
XZWVOUQIYLZUCJ-UHFFFAOYSA-N

> <PUBCHEM_XLOGP3_AA>
1.1

> <PUBCHEM_EXACT_MASS>
305.116426730

> <PUBCHEM_MOLECULAR_FORMULA>
C18H15N3O2

> <PUBCHEM_MOLECULAR_WEIGHT>
305.3

> <PUBCHEM_SMILES>
C1CC(C2=C(C1)N=C(C=C2)C3C4=C(C=CC(=C4)C#N)NC3=O)O

> <PUBCHEM_OPENEYE_CAN_SMILES>
C1CC(C2=C(C1)N=C(C=C2)C3C4=C(C=CC(=C4)C#N)NC3=O)O

> <PUBCHEM_OPENEYE_ISO_SMILES>
C1CC(C2=C(C1)N=C(C=C2)C3C4=C(C=CC(=C4)C#N)NC3=O)O

> <PUBCHEM_CACTVS_TPSA>
86

> <PUBCHEM_MONOISOTOPIC_WEIGHT>
305.116426730

> <PUBCHEM_TOTAL_CHARGE>
0

> <PUBCHEM_HEAVY_ATOM_COUNT>
23

> <PUBCHEM_ATOM_DEF_STEREO_COUNT>
0

> <PUBCHEM_ATOM_UDEF_STEREO_COUNT>
2

> <PUBCHEM_BOND_DEF_STEREO_COUNT>
0

> <PUBCHEM_BOND_UDEF_STEREO_COUNT>
0

> <PUBCHEM_ISOTOPIC_ATOM_COUNT>
0

> <PUBCHEM_COMPONENT_COUNT>
1

> <PUBCHEM_CACTVS_TAUTO_COUNT>
-1

> <PUBCHEM_COORDINATE_TYPE>
1
5
255

> <PUBCHEM_BONDANNOTATIONS>
6  1  3
11  13  3
13  16  8
14  18  8
14  19  8
15  16  8
18  20  8
19  21  8
20  22  8
21  22  8
3  12  8
3  13  8
9  12  8
9  15  8

$$$$
