233113
  -OEChem-03202504052D

 26 27  0     0  0  0  0  0  0999 V2000
    6.3776    1.1138    0.0000 S   0  0  0  0  0  0  0  0  0  0  0  0
    2.8660   -1.9794    0.0000 O   0  0  0  0  0  0  0  0  0  0  0  0
    4.5981   -2.9794    0.0000 O   0  0  0  0  0  0  0  0  0  0  0  0
    4.8255    3.1842    0.0000 O   0  0  0  0  0  0  0  0  0  0  0  0
    8.0413    1.7525    0.0000 O   0  0  0  0  0  0  0  0  0  0  0  0
    6.5468    2.7230    0.0000 N   0  0  0  0  0  0  0  0  0  0  0  0
    4.5981    0.0206    0.0000 C   0  0  0  0  0  0  0  0  0  0  0  0
    4.5981    1.0206    0.0000 C   0  0  0  0  0  0  0  0  0  0  0  0
    3.7320   -0.4794    0.0000 C   0  0  0  0  0  0  0  0  0  0  0  0
    5.4641    1.5206    0.0000 C   0  0  0  0  0  0  0  0  0  0  0  0
    3.7320   -1.4794    0.0000 C   0  0  0  0  0  0  0  0  0  0  0  0
    5.4641   -0.4794    0.0000 C   0  0  0  0  0  0  0  0  0  0  0  0
    4.5981   -1.9794    0.0000 C   0  0  0  0  0  0  0  0  0  0  0  0
    5.4641   -1.4794    0.0000 C   0  0  0  0  0  0  0  0  0  0  0  0
    5.5686    2.5151    0.0000 C   0  0  0  0  0  0  0  0  0  0  0  0
    7.0468    1.8570    0.0000 C   0  0  0  0  0  0  0  0  0  0  0  0
    2.0000   -1.4794    0.0000 C   0  0  0  0  0  0  0  0  0  0  0  0
    4.0611    1.3306    0.0000 H   0  0  0  0  0  0  0  0  0  0  0  0
    3.1951   -0.1694    0.0000 H   0  0  0  0  0  0  0  0  0  0  0  0
    6.0010   -0.1694    0.0000 H   0  0  0  0  0  0  0  0  0  0  0  0
    6.0010   -1.7894    0.0000 H   0  0  0  0  0  0  0  0  0  0  0  0
    6.7990    3.2894    0.0000 H   0  0  0  0  0  0  0  0  0  0  0  0
    2.3100   -0.9425    0.0000 H   0  0  0  0  0  0  0  0  0  0  0  0
    1.4631   -1.1694    0.0000 H   0  0  0  0  0  0  0  0  0  0  0  0
    1.6900   -2.0164    0.0000 H   0  0  0  0  0  0  0  0  0  0  0  0
    5.1350   -3.2894    0.0000 H   0  0  0  0  0  0  0  0  0  0  0  0
  1 10  1  0  0  0  0
  1 16  1  0  0  0  0
  2 11  1  0  0  0  0
  2 17  1  0  0  0  0
  3 13  1  0  0  0  0
  3 26  1  0  0  0  0
  4 15  2  0  0  0  0
  5 16  2  0  0  0  0
  6 15  1  0  0  0  0
  6 16  1  0  0  0  0
  6 22  1  0  0  0  0
  7  8  1  0  0  0  0
  7  9  2  0  0  0  0
  7 12  1  0  0  0  0
  8 10  2  3  0  0  0
  8 18  1  0  0  0  0
  9 11  1  0  0  0  0
  9 19  1  0  0  0  0
 10 15  1  0  0  0  0
 11 13  2  0  0  0  0
 12 14  2  0  0  0  0
 12 20  1  0  0  0  0
 13 14  1  0  0  0  0
 14 21  1  0  0  0  0
 17 23  1  0  0  0  0
 17 24  1  0  0  0  0
 17 25  1  0  0  0  0
M  END
> <PUBCHEM_COMPOUND_CID>
233113

> <PUBCHEM_COMPOUND_CANONICALIZED>
1

> <PUBCHEM_CACTVS_COMPLEXITY>
368

> <PUBCHEM_CACTVS_HBOND_ACCEPTOR>
5

> <PUBCHEM_CACTVS_HBOND_DONOR>
2

> <PUBCHEM_CACTVS_ROTATABLE_BOND>
2

> <PUBCHEM_CACTVS_SUBSKEYS>
AAADccByOABAAAAAAAAAAAAAAAAAAWAAAAAwAAAAAAAAAAABAAAAHgQQCAAADASB2AIyBoLABgiIAiFSEACCCABgIBAIiAAGiMgNJiKGMRqAcCMkxDELuYeAwBAOIAABAAAAQABAAAIAAACAAAAAAAAAAA==

> <PUBCHEM_IUPAC_OPENEYE_NAME>
5-[(4-hydroxy-3-methoxy-phenyl)methylene]thiazolidine-2,4-dione

> <PUBCHEM_IUPAC_CAS_NAME>
5-[(4-hydroxy-3-methoxyphenyl)methylidene]thiazolidine-2,4-dione

> <PUBCHEM_IUPAC_NAME_MARKUP>
5-[(4-hydroxy-3-methoxyphenyl)methylidene]-1,3-thiazolidine-2,4-dione

> <PUBCHEM_IUPAC_NAME>
5-[(4-hydroxy-3-methoxyphenyl)methylidene]-1,3-thiazolidine-2,4-dione

> <PUBCHEM_IUPAC_SYSTEMATIC_NAME>
5-[(3-methoxy-4-oxidanyl-phenyl)methylidene]-1,3-thiazolidine-2,4-dione

> <PUBCHEM_IUPAC_TRADITIONAL_NAME>
5-vanillylidenethiazolidine-2,4-quinone

> <PUBCHEM_IUPAC_INCHI>
InChI=1S/C11H9NO4S/c1-16-8-4-6(2-3-7(8)13)5-9-10(14)12-11(15)17-9/h2-5,13H,1H3,(H,12,14,15)

> <PUBCHEM_IUPAC_INCHIKEY>
KAICHBSRWFIESE-UHFFFAOYSA-N

> <PUBCHEM_XLOGP3_AA>
1.8

> <PUBCHEM_EXACT_MASS>
251.02522894

> <PUBCHEM_MOLECULAR_FORMULA>
C11H9NO4S

> <PUBCHEM_MOLECULAR_WEIGHT>
251.26

> <PUBCHEM_SMILES>
COC1=C(C=CC(=C1)C=C2C(=O)NC(=O)S2)O

> <PUBCHEM_OPENEYE_CAN_SMILES>
COC1=C(C=CC(=C1)C=C2C(=O)NC(=O)S2)O

> <PUBCHEM_OPENEYE_ISO_SMILES>
COC1=C(C=CC(=C1)C=C2C(=O)NC(=O)S2)O

> <PUBCHEM_CACTVS_TPSA>
101

> <PUBCHEM_MONOISOTOPIC_WEIGHT>
251.02522894

> <PUBCHEM_TOTAL_CHARGE>
0

> <PUBCHEM_HEAVY_ATOM_COUNT>
17

> <PUBCHEM_ATOM_DEF_STEREO_COUNT>
0

> <PUBCHEM_ATOM_UDEF_STEREO_COUNT>
0

> <PUBCHEM_BOND_DEF_STEREO_COUNT>
0

> <PUBCHEM_BOND_UDEF_STEREO_COUNT>
1

> <PUBCHEM_ISOTOPIC_ATOM_COUNT>
0

> <PUBCHEM_COMPONENT_COUNT>
1

> <PUBCHEM_CACTVS_TAUTO_COUNT>
-1

> <PUBCHEM_COORDINATE_TYPE>
1
5
255

> <PUBCHEM_BONDANNOTATIONS>
11  13  8
12  14  8
13  14  8
7  12  8
7  9  8
8  10  1
9  11  8

$$$$
