47001891
  -OEChem-03202502462D

 38 41  0     0  0  0  0  0  0999 V2000
    7.2764   -0.6631    0.0000 S   0  0  0  0  0  0  0  0  0  0  0  0
   10.9477   -1.5334    0.0000 S   0  0  0  0  0  0  0  0  0  0  0  0
    9.3600    1.0077    0.0000 O   0  0  0  0  0  0  0  0  0  0  0  0
    5.4641   -0.8584    0.0000 N   0  0  0  0  0  0  0  0  0  0  0  0
    7.5870    1.8969    0.0000 N   0  0  0  0  0  0  0  0  0  0  0  0
    9.3600   -0.7244    0.0000 N   0  0  0  0  0  0  0  0  0  0  0  0
   10.9477    0.0846    0.0000 N   0  0  0  0  0  0  0  0  0  0  0  0
    2.0000   -1.8584    0.0000 N   0  0  0  0  0  0  0  0  0  0  0  0
    6.3301    0.6416    0.0000 C   0  0  0  0  0  0  0  0  0  0  0  0
    7.2764    0.9464    0.0000 C   0  0  0  0  0  0  0  0  0  0  0  0
    6.3301   -0.3584    0.0000 C   0  0  0  0  0  0  0  0  0  0  0  0
    7.8600    0.1416    0.0000 C   0  0  0  0  0  0  0  0  0  0  0  0
    5.4641    1.1416    0.0000 C   0  0  0  0  0  0  0  0  0  0  0  0
    4.5981   -0.3584    0.0000 C   0  0  0  0  0  0  0  0  0  0  0  0
    4.5981    0.6416    0.0000 C   0  0  0  0  0  0  0  0  0  0  0  0
    3.7320   -0.8584    0.0000 C   0  0  0  0  0  0  0  0  0  0  0  0
    8.8600    0.1416    0.0000 C   0  0  0  0  0  0  0  0  0  0  0  0
    2.8660   -0.3584    0.0000 C   0  0  0  0  0  0  0  0  0  0  0  0
    3.7320   -1.8584    0.0000 C   0  0  0  0  0  0  0  0  0  0  0  0
   10.3600   -0.7244    0.0000 C   0  0  0  0  0  0  0  0  0  0  0  0
   11.8988   -0.2244    0.0000 C   0  0  0  0  0  0  0  0  0  0  0  0
    2.0000   -0.8584    0.0000 C   0  0  0  0  0  0  0  0  0  0  0  0
    2.8660   -2.3584    0.0000 C   0  0  0  0  0  0  0  0  0  0  0  0
   11.8988   -1.2244    0.0000 C   0  0  0  0  0  0  0  0  0  0  0  0
   12.7078    0.3634    0.0000 C   0  0  0  0  0  0  0  0  0  0  0  0
    5.4641    1.7616    0.0000 H   0  0  0  0  0  0  0  0  0  0  0  0
    4.0611    0.9516    0.0000 H   0  0  0  0  0  0  0  0  0  0  0  0
    7.1730    2.3584    0.0000 H   0  0  0  0  0  0  0  0  0  0  0  0
    8.1937    2.0248    0.0000 H   0  0  0  0  0  0  0  0  0  0  0  0
    9.0500   -1.2613    0.0000 H   0  0  0  0  0  0  0  0  0  0  0  0
    2.8660    0.2616    0.0000 H   0  0  0  0  0  0  0  0  0  0  0  0
    4.2690   -2.1684    0.0000 H   0  0  0  0  0  0  0  0  0  0  0  0
    1.4631   -0.5484    0.0000 H   0  0  0  0  0  0  0  0  0  0  0  0
    2.8660   -2.9784    0.0000 H   0  0  0  0  0  0  0  0  0  0  0  0
   12.4004   -1.5888    0.0000 H   0  0  0  0  0  0  0  0  0  0  0  0
   13.0722   -0.1382    0.0000 H   0  0  0  0  0  0  0  0  0  0  0  0
   13.2094    0.7278    0.0000 H   0  0  0  0  0  0  0  0  0  0  0  0
   12.3434    0.8650    0.0000 H   0  0  0  0  0  0  0  0  0  0  0  0
  1 11  1  0  0  0  0
  1 12  1  0  0  0  0
  2 20  1  0  0  0  0
  2 24  1  0  0  0  0
  3 17  2  0  0  0  0
  4 11  1  0  0  0  0
  4 14  2  0  0  0  0
  5 10  1  0  0  0  0
  5 28  1  0  0  0  0
  5 29  1  0  0  0  0
  6 17  1  0  0  0  0
  6 20  1  0  0  0  0
  6 30  1  0  0  0  0
  7 20  2  0  0  0  0
  7 21  1  0  0  0  0
  8 22  2  0  0  0  0
  8 23  1  0  0  0  0
  9 10  1  0  0  0  0
  9 11  2  0  0  0  0
  9 13  1  0  0  0  0
 10 12  2  0  0  0  0
 12 17  1  0  0  0  0
 13 15  2  0  0  0  0
 13 26  1  0  0  0  0
 14 15  1  0  0  0  0
 14 16  1  0  0  0  0
 15 27  1  0  0  0  0
 16 18  2  0  0  0  0
 16 19  1  0  0  0  0
 18 22  1  0  0  0  0
 18 31  1  0  0  0  0
 19 23  2  0  0  0  0
 19 32  1  0  0  0  0
 21 24  2  0  0  0  0
 21 25  1  0  0  0  0
 22 33  1  0  0  0  0
 23 34  1  0  0  0  0
 24 35  1  0  0  0  0
 25 36  1  0  0  0  0
 25 37  1  0  0  0  0
 25 38  1  0  0  0  0
M  END
> <PUBCHEM_COMPOUND_CID>
47001891

> <PUBCHEM_COMPOUND_CANONICALIZED>
1

> <PUBCHEM_CACTVS_COMPLEXITY>
490

> <PUBCHEM_CACTVS_HBOND_ACCEPTOR>
7

> <PUBCHEM_CACTVS_HBOND_DONOR>
2

> <PUBCHEM_CACTVS_ROTATABLE_BOND>
3

> <PUBCHEM_CACTVS_SUBSKEYS>
AAADccB7oABgAAAAAAAAAAAAAAAAAWJAAAAsWAAAAAAAAFgB/gAAHgQQAAAADAjF3gS/0dLIEAisAzV3dACD8Kl1CjkJ2DU4ZNiIIPrg3dGEJYxogQLoyWcYicCOAAAAAAAAAAAAAAAAAAAAAAAAAAAAAA==

> <PUBCHEM_IUPAC_OPENEYE_NAME>
3-amino-N-(4-methylthiazol-2-yl)-6-(4-pyridyl)thieno[2,3-b]pyridine-2-carboxamide

> <PUBCHEM_IUPAC_CAS_NAME>
3-amino-N-(4-methyl-2-thiazolyl)-6-pyridin-4-yl-2-thieno[2,3-b]pyridinecarboxamide

> <PUBCHEM_IUPAC_NAME_MARKUP>
3-amino-<I>N</I>-(4-methyl-1,3-thiazol-2-yl)-6-pyridin-4-ylthieno[2,3-b]pyridine-2-carboxamide

> <PUBCHEM_IUPAC_NAME>
3-amino-N-(4-methyl-1,3-thiazol-2-yl)-6-pyridin-4-ylthieno[2,3-b]pyridine-2-carboxamide

> <PUBCHEM_IUPAC_SYSTEMATIC_NAME>
3-azanyl-N-(4-methyl-1,3-thiazol-2-yl)-6-pyridin-4-yl-thieno[2,3-b]pyridine-2-carboxamide

> <PUBCHEM_IUPAC_TRADITIONAL_NAME>
3-amino-N-(4-methylthiazol-2-yl)-6-(4-pyridyl)thieno[2,3-b]pyridine-2-carboxamide

> <PUBCHEM_IUPAC_INCHI>
InChI=1S/C17H13N5OS2/c1-9-8-24-17(20-9)22-15(23)14-13(18)11-2-3-12(21-16(11)25-14)10-4-6-19-7-5-10/h2-8H,18H2,1H3,(H,20,22,23)

> <PUBCHEM_IUPAC_INCHIKEY>
GMDDDBPJXVXQKN-UHFFFAOYSA-N

> <PUBCHEM_XLOGP3_AA>
3.6

> <PUBCHEM_EXACT_MASS>
367.05615240

> <PUBCHEM_MOLECULAR_FORMULA>
C17H13N5OS2

> <PUBCHEM_MOLECULAR_WEIGHT>
367.5

> <PUBCHEM_SMILES>
CC1=CSC(=N1)NC(=O)C2=C(C3=C(S2)N=C(C=C3)C4=CC=NC=C4)N

> <PUBCHEM_OPENEYE_CAN_SMILES>
CC1=CSC(=N1)NC(=O)C2=C(C3=C(S2)N=C(C=C3)C4=CC=NC=C4)N

> <PUBCHEM_OPENEYE_ISO_SMILES>
CC1=CSC(=N1)NC(=O)C2=C(C3=C(S2)N=C(C=C3)C4=CC=NC=C4)N

> <PUBCHEM_CACTVS_TPSA>
150

> <PUBCHEM_MONOISOTOPIC_WEIGHT>
367.05615240

> <PUBCHEM_TOTAL_CHARGE>
0

> <PUBCHEM_HEAVY_ATOM_COUNT>
25

> <PUBCHEM_ATOM_DEF_STEREO_COUNT>
0

> <PUBCHEM_ATOM_UDEF_STEREO_COUNT>
0

> <PUBCHEM_BOND_DEF_STEREO_COUNT>
0

> <PUBCHEM_BOND_UDEF_STEREO_COUNT>
0

> <PUBCHEM_ISOTOPIC_ATOM_COUNT>
0

> <PUBCHEM_COMPONENT_COUNT>
1

> <PUBCHEM_CACTVS_TAUTO_COUNT>
-1

> <PUBCHEM_COORDINATE_TYPE>
1
5
255

> <PUBCHEM_BONDANNOTATIONS>
1  11  8
1  12  8
10  12  8
13  15  8
14  15  8
16  18  8
16  19  8
18  22  8
19  23  8
2  20  8
2  24  8
21  24  8
4  11  8
4  14  8
7  20  8
7  21  8
8  22  8
8  23  8
9  10  8
9  11  8
9  13  8

$$$$
