49830370
  -OEChem-03202501412D

 46 49  0     0  0  0  0  0  0999 V2000
    2.8660    5.7500    0.0000 Br  0  0  0  0  0  0  0  0  0  0  0  0
    3.7320    1.2500    0.0000 O   0  0  0  0  0  0  0  0  0  0  0  0
    7.2764   -4.5547    0.0000 N   0  0  0  0  0  0  0  0  0  0  0  0
    7.8600   -3.7500    0.0000 N   0  0  0  0  0  0  0  0  0  0  0  0
    7.5870   -1.9948    0.0000 N   0  0  0  0  0  0  0  0  0  0  0  0
    5.4641    1.2500    0.0000 N   0  0  0  0  0  0  0  0  0  0  0  0
    4.5981    2.7500    0.0000 N   0  0  0  0  0  0  0  0  0  0  0  0
    6.3301   -3.2500    0.0000 C   0  0  0  0  0  0  0  0  0  0  0  0
    5.4641   -2.7500    0.0000 C   0  0  0  0  0  0  0  0  0  0  0  0
    6.3301   -4.2500    0.0000 C   0  0  0  0  0  0  0  0  0  0  0  0
    5.4641   -4.7500    0.0000 C   0  0  0  0  0  0  0  0  0  0  0  0
    5.4641   -1.7500    0.0000 C   0  0  0  0  0  0  0  0  0  0  0  0
    4.5981   -3.2500    0.0000 C   0  0  0  0  0  0  0  0  0  0  0  0
    7.2764   -2.9453    0.0000 C   0  0  0  0  0  0  0  0  0  0  0  0
    4.5981   -4.2500    0.0000 C   0  0  0  0  0  0  0  0  0  0  0  0
    4.5981   -1.2500    0.0000 C   0  0  0  0  0  0  0  0  0  0  0  0
    6.3301   -1.2500    0.0000 C   0  0  0  0  0  0  0  0  0  0  0  0
    5.4641   -5.7500    0.0000 C   0  0  0  0  0  0  0  0  0  0  0  0
    5.4641    0.2500    0.0000 C   0  0  0  0  0  0  0  0  0  0  0  0
    4.5981   -0.2500    0.0000 C   0  0  0  0  0  0  0  0  0  0  0  0
    6.3301   -0.2500    0.0000 C   0  0  0  0  0  0  0  0  0  0  0  0
    4.5981    1.7500    0.0000 C   0  0  0  0  0  0  0  0  0  0  0  0
    3.7320    3.2500    0.0000 C   0  0  0  0  0  0  0  0  0  0  0  0
    3.7320    4.2500    0.0000 C   0  0  0  0  0  0  0  0  0  0  0  0
    2.8660    2.7500    0.0000 C   0  0  0  0  0  0  0  0  0  0  0  0
    2.8660    4.7500    0.0000 C   0  0  0  0  0  0  0  0  0  0  0  0
    2.0000    3.2500    0.0000 C   0  0  0  0  0  0  0  0  0  0  0  0
    2.0000    4.2500    0.0000 C   0  0  0  0  0  0  0  0  0  0  0  0
    4.0611   -2.9400    0.0000 H   0  0  0  0  0  0  0  0  0  0  0  0
    4.0611   -4.5600    0.0000 H   0  0  0  0  0  0  0  0  0  0  0  0
    7.4690   -5.1440    0.0000 H   0  0  0  0  0  0  0  0  0  0  0  0
    4.0611   -1.5600    0.0000 H   0  0  0  0  0  0  0  0  0  0  0  0
    6.8671   -1.5600    0.0000 H   0  0  0  0  0  0  0  0  0  0  0  0
    4.8441   -5.7500    0.0000 H   0  0  0  0  0  0  0  0  0  0  0  0
    5.4641   -6.3700    0.0000 H   0  0  0  0  0  0  0  0  0  0  0  0
    6.0841   -5.7500    0.0000 H   0  0  0  0  0  0  0  0  0  0  0  0
    4.0611    0.0600    0.0000 H   0  0  0  0  0  0  0  0  0  0  0  0
    6.8671    0.0600    0.0000 H   0  0  0  0  0  0  0  0  0  0  0  0
    8.1937   -1.8669    0.0000 H   0  0  0  0  0  0  0  0  0  0  0  0
    7.1730   -1.5333    0.0000 H   0  0  0  0  0  0  0  0  0  0  0  0
    6.0010    1.5600    0.0000 H   0  0  0  0  0  0  0  0  0  0  0  0
    5.1350    3.0600    0.0000 H   0  0  0  0  0  0  0  0  0  0  0  0
    4.2690    4.5600    0.0000 H   0  0  0  0  0  0  0  0  0  0  0  0
    2.8660    2.1300    0.0000 H   0  0  0  0  0  0  0  0  0  0  0  0
    1.4631    2.9400    0.0000 H   0  0  0  0  0  0  0  0  0  0  0  0
    1.4631    4.5600    0.0000 H   0  0  0  0  0  0  0  0  0  0  0  0
  1 26  1  0  0  0  0
  2 22  2  0  0  0  0
  3  4  1  0  0  0  0
  3 10  1  0  0  0  0
  3 31  1  0  0  0  0
  4 14  2  0  0  0  0
  5 14  1  0  0  0  0
  5 39  1  0  0  0  0
  5 40  1  0  0  0  0
  6 19  1  0  0  0  0
  6 22  1  0  0  0  0
  6 41  1  0  0  0  0
  7 22  1  0  0  0  0
  7 23  1  0  0  0  0
  7 42  1  0  0  0  0
  8  9  2  0  0  0  0
  8 10  1  0  0  0  0
  8 14  1  0  0  0  0
  9 12  1  0  0  0  0
  9 13  1  0  0  0  0
 10 11  2  0  0  0  0
 11 15  1  0  0  0  0
 11 18  1  0  0  0  0
 12 16  2  0  0  0  0
 12 17  1  0  0  0  0
 13 15  2  0  0  0  0
 13 29  1  0  0  0  0
 15 30  1  0  0  0  0
 16 20  1  0  0  0  0
 16 32  1  0  0  0  0
 17 21  2  0  0  0  0
 17 33  1  0  0  0  0
 18 34  1  0  0  0  0
 18 35  1  0  0  0  0
 18 36  1  0  0  0  0
 19 20  2  0  0  0  0
 19 21  1  0  0  0  0
 20 37  1  0  0  0  0
 21 38  1  0  0  0  0
 23 24  2  0  0  0  0
 23 25  1  0  0  0  0
 24 26  1  0  0  0  0
 24 43  1  0  0  0  0
 25 27  2  0  0  0  0
 25 44  1  0  0  0  0
 26 28  2  0  0  0  0
 27 28  1  0  0  0  0
 27 45  1  0  0  0  0
 28 46  1  0  0  0  0
M  END
> <PUBCHEM_COMPOUND_CID>
49830370

> <PUBCHEM_COMPOUND_CANONICALIZED>
1

> <PUBCHEM_CACTVS_COMPLEXITY>
541

> <PUBCHEM_CACTVS_HBOND_ACCEPTOR>
3

> <PUBCHEM_CACTVS_HBOND_DONOR>
4

> <PUBCHEM_CACTVS_ROTATABLE_BOND>
3

> <PUBCHEM_CACTVS_SUBSKEYS>
AAADceB7oAAAEAAAAAAAAAAAAAAAAWAAAAAwYMAAAAAAAFgB9AAAHgBYAAABrAiBHgAz8PLjAACqAyZicACSBAIhAgQcuSAgZLiIIKLA0dGEpAh4nAJIyjcQgMAOyAACQAESAACQAASAAiQAAAAAAAAAAA==

> <PUBCHEM_IUPAC_OPENEYE_NAME>
1-[4-(3-amino-7-methyl-1H-indazol-4-yl)phenyl]-3-(3-bromophenyl)urea

> <PUBCHEM_IUPAC_CAS_NAME>
1-[4-(3-amino-7-methyl-1H-indazol-4-yl)phenyl]-3-(3-bromophenyl)urea

> <PUBCHEM_IUPAC_NAME_MARKUP>
1-[4-(3-amino-7-methyl-1<I>H</I>-indazol-4-yl)phenyl]-3-(3-bromophenyl)urea

> <PUBCHEM_IUPAC_NAME>
1-[4-(3-amino-7-methyl-1H-indazol-4-yl)phenyl]-3-(3-bromophenyl)urea

> <PUBCHEM_IUPAC_SYSTEMATIC_NAME>
1-[4-(3-azanyl-7-methyl-1H-indazol-4-yl)phenyl]-3-(3-bromophenyl)urea

> <PUBCHEM_IUPAC_TRADITIONAL_NAME>
1-[4-(3-amino-7-methyl-1H-indazol-4-yl)phenyl]-3-(3-bromophenyl)urea

> <PUBCHEM_IUPAC_INCHI>
InChI=1S/C21H18BrN5O/c1-12-5-10-17(18-19(12)26-27-20(18)23)13-6-8-15(9-7-13)24-21(28)25-16-4-2-3-14(22)11-16/h2-11H,1H3,(H3,23,26,27)(H2,24,25,28)

> <PUBCHEM_IUPAC_INCHIKEY>
LCGSWTFWYNYUKS-UHFFFAOYSA-N

> <PUBCHEM_XLOGP3_AA>
4.5

> <PUBCHEM_EXACT_MASS>
435.06947

> <PUBCHEM_MOLECULAR_FORMULA>
C21H18BrN5O

> <PUBCHEM_MOLECULAR_WEIGHT>
436.3

> <PUBCHEM_SMILES>
CC1=C2C(=C(C=C1)C3=CC=C(C=C3)NC(=O)NC4=CC(=CC=C4)Br)C(=NN2)N

> <PUBCHEM_OPENEYE_CAN_SMILES>
CC1=C2C(=C(C=C1)C3=CC=C(C=C3)NC(=O)NC4=CC(=CC=C4)Br)C(=NN2)N

> <PUBCHEM_OPENEYE_ISO_SMILES>
CC1=C2C(=C(C=C1)C3=CC=C(C=C3)NC(=O)NC4=CC(=CC=C4)Br)C(=NN2)N

> <PUBCHEM_CACTVS_TPSA>
95.8

> <PUBCHEM_MONOISOTOPIC_WEIGHT>
435.06947

> <PUBCHEM_TOTAL_CHARGE>
0

> <PUBCHEM_HEAVY_ATOM_COUNT>
28

> <PUBCHEM_ATOM_DEF_STEREO_COUNT>
0

> <PUBCHEM_ATOM_UDEF_STEREO_COUNT>
0

> <PUBCHEM_BOND_DEF_STEREO_COUNT>
0

> <PUBCHEM_BOND_UDEF_STEREO_COUNT>
0

> <PUBCHEM_ISOTOPIC_ATOM_COUNT>
0

> <PUBCHEM_COMPONENT_COUNT>
1

> <PUBCHEM_CACTVS_TAUTO_COUNT>
-1

> <PUBCHEM_COORDINATE_TYPE>
1
5
255

> <PUBCHEM_BONDANNOTATIONS>
10  11  8
11  15  8
12  16  8
12  17  8
13  15  8
16  20  8
17  21  8
19  20  8
19  21  8
23  24  8
23  25  8
24  26  8
25  27  8
26  28  8
27  28  8
3  10  8
3  4  8
4  14  8
8  10  8
8  14  8
8  9  8
9  13  8

$$$$
