25165481
  -OEChem-03202500282D

 51 55  0     0  0  0  0  0  0999 V2000
    8.3074    4.1497    0.0000 F   0  0  0  0  0  0  0  0  0  0  0  0
    2.7431   -4.1497    0.0000 O   0  0  0  0  0  0  0  0  0  0  0  0
    3.1590   -2.1934    0.0000 N   0  0  0  0  0  0  0  0  0  0  0  0
    4.5258    0.0719    0.0000 N   0  0  0  0  0  0  0  0  0  0  0  0
    4.3567    1.6811    0.0000 N   0  0  0  0  0  0  0  0  0  0  0  0
    8.9837   -1.3261    0.0000 N   0  0  0  0  0  0  0  0  0  0  0  0
    9.5673   -0.5214    0.0000 N   0  0  0  0  0  0  0  0  0  0  0  0
    3.3669   -1.2152    0.0000 C   0  0  0  0  0  0  0  0  0  0  0  0
    4.3179   -0.9062    0.0000 C   0  0  0  0  0  0  0  0  0  0  0  0
    2.2079   -2.5024    0.0000 C   0  0  0  0  0  0  0  0  0  0  0  0
    3.9021   -2.8625    0.0000 C   0  0  0  0  0  0  0  0  0  0  0  0
    2.0000   -3.4806    0.0000 C   0  0  0  0  0  0  0  0  0  0  0  0
    3.6942   -3.8407    0.0000 C   0  0  0  0  0  0  0  0  0  0  0  0
    5.4394    0.4786    0.0000 C   0  0  0  0  0  0  0  0  0  0  0  0
    5.3349    1.4732    0.0000 C   0  0  0  0  0  0  0  0  0  0  0  0
    6.3054   -0.0214    0.0000 C   0  0  0  0  0  0  0  0  0  0  0  0
    3.8567    0.8151    0.0000 C   0  0  0  0  0  0  0  0  0  0  0  0
    6.0780    2.1423    0.0000 C   0  0  0  0  0  0  0  0  0  0  0  0
    7.1714    0.4786    0.0000 C   0  0  0  0  0  0  0  0  0  0  0  0
    6.3054   -1.0214    0.0000 C   0  0  0  0  0  0  0  0  0  0  0  0
    8.0375   -0.0214    0.0000 C   0  0  0  0  0  0  0  0  0  0  0  0
    8.0375   -1.0214    0.0000 C   0  0  0  0  0  0  0  0  0  0  0  0
    7.1714   -1.5214    0.0000 C   0  0  0  0  0  0  0  0  0  0  0  0
    7.0291    1.8333    0.0000 C   0  0  0  0  0  0  0  0  0  0  0  0
    5.8701    3.1204    0.0000 C   0  0  0  0  0  0  0  0  0  0  0  0
    8.9837    0.2834    0.0000 C   0  0  0  0  0  0  0  0  0  0  0  0
    7.7722    2.5024    0.0000 C   0  0  0  0  0  0  0  0  0  0  0  0
    6.6132    3.7896    0.0000 C   0  0  0  0  0  0  0  0  0  0  0  0
    7.5643    3.4806    0.0000 C   0  0  0  0  0  0  0  0  0  0  0  0
    3.2806   -0.6013    0.0000 H   0  0  0  0  0  0  0  0  0  0  0  0
    2.7473   -1.1936    0.0000 H   0  0  0  0  0  0  0  0  0  0  0  0
    4.4042   -1.5202    0.0000 H   0  0  0  0  0  0  0  0  0  0  0  0
    4.9376   -0.9279    0.0000 H   0  0  0  0  0  0  0  0  0  0  0  0
    2.1216   -1.8884    0.0000 H   0  0  0  0  0  0  0  0  0  0  0  0
    1.5883   -2.4808    0.0000 H   0  0  0  0  0  0  0  0  0  0  0  0
    4.4770   -3.0948    0.0000 H   0  0  0  0  0  0  0  0  0  0  0  0
    4.2307   -2.3367    0.0000 H   0  0  0  0  0  0  0  0  0  0  0  0
    1.4252   -3.2483    0.0000 H   0  0  0  0  0  0  0  0  0  0  0  0
    1.6714   -4.0064    0.0000 H   0  0  0  0  0  0  0  0  0  0  0  0
    3.7805   -4.4546    0.0000 H   0  0  0  0  0  0  0  0  0  0  0  0
    4.3138   -3.8623    0.0000 H   0  0  0  0  0  0  0  0  0  0  0  0
    3.2401    0.7502    0.0000 H   0  0  0  0  0  0  0  0  0  0  0  0
    7.1714    1.0986    0.0000 H   0  0  0  0  0  0  0  0  0  0  0  0
    5.7685   -1.3314    0.0000 H   0  0  0  0  0  0  0  0  0  0  0  0
    7.1714   -2.1414    0.0000 H   0  0  0  0  0  0  0  0  0  0  0  0
    7.1580    1.2268    0.0000 H   0  0  0  0  0  0  0  0  0  0  0  0
    5.2804    3.3120    0.0000 H   0  0  0  0  0  0  0  0  0  0  0  0
    9.1763    0.8727    0.0000 H   0  0  0  0  0  0  0  0  0  0  0  0
    9.1763   -1.9154    0.0000 H   0  0  0  0  0  0  0  0  0  0  0  0
    8.3619    2.3108    0.0000 H   0  0  0  0  0  0  0  0  0  0  0  0
    6.4843    4.3960    0.0000 H   0  0  0  0  0  0  0  0  0  0  0  0
  1 29  1  0  0  0  0
  2 12  1  0  0  0  0
  2 13  1  0  0  0  0
  3  8  1  0  0  0  0
  3 10  1  0  0  0  0
  3 11  1  0  0  0  0
  4  9  1  0  0  0  0
  4 14  1  0  0  0  0
  4 17  1  0  0  0  0
  5 15  1  0  0  0  0
  5 17  2  0  0  0  0
  6  7  1  0  0  0  0
  6 22  1  0  0  0  0
  6 49  1  0  0  0  0
  7 26  2  0  0  0  0
  8  9  1  0  0  0  0
  8 30  1  0  0  0  0
  8 31  1  0  0  0  0
  9 32  1  0  0  0  0
  9 33  1  0  0  0  0
 10 12  1  0  0  0  0
 10 34  1  0  0  0  0
 10 35  1  0  0  0  0
 11 13  1  0  0  0  0
 11 36  1  0  0  0  0
 11 37  1  0  0  0  0
 12 38  1  0  0  0  0
 12 39  1  0  0  0  0
 13 40  1  0  0  0  0
 13 41  1  0  0  0  0
 14 15  2  0  0  0  0
 14 16  1  0  0  0  0
 15 18  1  0  0  0  0
 16 19  2  0  0  0  0
 16 20  1  0  0  0  0
 17 42  1  0  0  0  0
 18 24  2  0  0  0  0
 18 25  1  0  0  0  0
 19 21  1  0  0  0  0
 19 43  1  0  0  0  0
 20 23  2  0  0  0  0
 20 44  1  0  0  0  0
 21 22  2  0  0  0  0
 21 26  1  0  0  0  0
 22 23  1  0  0  0  0
 23 45  1  0  0  0  0
 24 27  1  0  0  0  0
 24 46  1  0  0  0  0
 25 28  2  0  0  0  0
 25 47  1  0  0  0  0
 26 48  1  0  0  0  0
 27 29  2  0  0  0  0
 27 50  1  0  0  0  0
 28 29  1  0  0  0  0
 28 51  1  0  0  0  0
M  END
> <PUBCHEM_COMPOUND_CID>
25165481

> <PUBCHEM_COMPOUND_CANONICALIZED>
1

> <PUBCHEM_CACTVS_COMPLEXITY>
525

> <PUBCHEM_CACTVS_HBOND_ACCEPTOR>
5

> <PUBCHEM_CACTVS_HBOND_DONOR>
1

> <PUBCHEM_CACTVS_ROTATABLE_BOND>
5

> <PUBCHEM_CACTVS_SUBSKEYS>
AAADceB7oQAAAAAAAAAAAAAAAAAAAWLAAAA8YIAAAAAAAFgB/AAAHwAYAAAADAjhng490PdvFACiAzRnZACShC0xkqAZ+SA4dJiKaKLA2dGXpAhomALYyCcQgMAOCAACAAACAAAQAAQAAAQAAAAAAAAAAA==

> <PUBCHEM_IUPAC_OPENEYE_NAME>
4-[2-[4-(4-fluorophenyl)-5-(1H-indazol-5-yl)imidazol-1-yl]ethyl]morpholine

> <PUBCHEM_IUPAC_CAS_NAME>
4-[2-[4-(4-fluorophenyl)-5-(1H-indazol-5-yl)-1-imidazolyl]ethyl]morpholine

> <PUBCHEM_IUPAC_NAME_MARKUP>
4-[2-[4-(4-fluorophenyl)-5-(1<I>H</I>-indazol-5-yl)imidazol-1-yl]ethyl]morpholine

> <PUBCHEM_IUPAC_NAME>
4-[2-[4-(4-fluorophenyl)-5-(1H-indazol-5-yl)imidazol-1-yl]ethyl]morpholine

> <PUBCHEM_IUPAC_SYSTEMATIC_NAME>
4-[2-[4-(4-fluorophenyl)-5-(1H-indazol-5-yl)imidazol-1-yl]ethyl]morpholine

> <PUBCHEM_IUPAC_TRADITIONAL_NAME>
4-[2-[4-(4-fluorophenyl)-5-(1H-indazol-5-yl)imidazol-1-yl]ethyl]morpholine

> <PUBCHEM_IUPAC_INCHI>
InChI=1S/C22H22FN5O/c23-19-4-1-16(2-5-19)21-22(17-3-6-20-18(13-17)14-25-26-20)28(15-24-21)8-7-27-9-11-29-12-10-27/h1-6,13-15H,7-12H2,(H,25,26)

> <PUBCHEM_IUPAC_INCHIKEY>
RVPSPMYVDLPRIK-UHFFFAOYSA-N

> <PUBCHEM_XLOGP3_AA>
2.7

> <PUBCHEM_EXACT_MASS>
391.18083850

> <PUBCHEM_MOLECULAR_FORMULA>
C22H22FN5O

> <PUBCHEM_MOLECULAR_WEIGHT>
391.4

> <PUBCHEM_SMILES>
C1COCCN1CCN2C=NC(=C2C3=CC4=C(C=C3)NN=C4)C5=CC=C(C=C5)F

> <PUBCHEM_OPENEYE_CAN_SMILES>
C1COCCN1CCN2C=NC(=C2C3=CC4=C(C=C3)NN=C4)C5=CC=C(C=C5)F

> <PUBCHEM_OPENEYE_ISO_SMILES>
C1COCCN1CCN2C=NC(=C2C3=CC4=C(C=C3)NN=C4)C5=CC=C(C=C5)F

> <PUBCHEM_CACTVS_TPSA>
59

> <PUBCHEM_MONOISOTOPIC_WEIGHT>
391.18083850

> <PUBCHEM_TOTAL_CHARGE>
0

> <PUBCHEM_HEAVY_ATOM_COUNT>
29

> <PUBCHEM_ATOM_DEF_STEREO_COUNT>
0

> <PUBCHEM_ATOM_UDEF_STEREO_COUNT>
0

> <PUBCHEM_BOND_DEF_STEREO_COUNT>
0

> <PUBCHEM_BOND_UDEF_STEREO_COUNT>
0

> <PUBCHEM_ISOTOPIC_ATOM_COUNT>
0

> <PUBCHEM_COMPONENT_COUNT>
1

> <PUBCHEM_CACTVS_TAUTO_COUNT>
-1

> <PUBCHEM_COORDINATE_TYPE>
1
5
255

> <PUBCHEM_BONDANNOTATIONS>
14  15  8
16  19  8
16  20  8
18  24  8
18  25  8
19  21  8
20  23  8
21  22  8
21  26  8
22  23  8
24  27  8
25  28  8
27  29  8
28  29  8
4  14  8
4  17  8
5  15  8
5  17  8
6  22  8
6  7  8
7  26  8

$$$$
