10380356
  -OEChem-03202506242D

 27 29  0     0  0  0  0  0  0999 V2000
    2.0000   -2.6948    0.0000 Br  0  0  0  0  0  0  0  0  0  0  0  0
    3.7320    0.3052    0.0000 O   0  0  0  0  0  0  0  0  0  0  0  0
    5.5443   -2.4996    0.0000 N   0  0  0  0  0  0  0  0  0  0  0  0
    5.1871    0.8047    0.0000 N   0  0  0  0  0  0  0  0  0  0  0  0
    6.4763    1.9615    0.0000 N   0  0  0  0  0  0  0  0  0  0  0  0
    4.8299    2.4996    0.0000 N   0  0  0  0  0  0  0  0  0  0  0  0
    4.5981   -1.1948    0.0000 C   0  0  0  0  0  0  0  0  0  0  0  0
    5.5443   -0.8901    0.0000 C   0  0  0  0  0  0  0  0  0  0  0  0
    4.5981   -2.1948    0.0000 C   0  0  0  0  0  0  0  0  0  0  0  0
    6.1279   -1.6948    0.0000 C   0  0  0  0  0  0  0  0  0  0  0  0
    3.7320   -0.6948    0.0000 C   0  0  0  0  0  0  0  0  0  0  0  0
    5.8550    0.0604    0.0000 C   0  0  0  0  0  0  0  0  0  0  0  0
    3.7320   -2.6948    0.0000 C   0  0  0  0  0  0  0  0  0  0  0  0
    2.8660   -1.1948    0.0000 C   0  0  0  0  0  0  0  0  0  0  0  0
    2.8660   -2.1948    0.0000 C   0  0  0  0  0  0  0  0  0  0  0  0
    6.8335    0.2666    0.0000 C   0  0  0  0  0  0  0  0  0  0  0  0
    7.1441    1.2172    0.0000 C   0  0  0  0  0  0  0  0  0  0  0  0
    5.4978    1.7552    0.0000 C   0  0  0  0  0  0  0  0  0  0  0  0
    6.7479   -1.6948    0.0000 H   0  0  0  0  0  0  0  0  0  0  0  0
    5.7369   -3.0889    0.0000 H   0  0  0  0  0  0  0  0  0  0  0  0
    3.7320   -3.3148    0.0000 H   0  0  0  0  0  0  0  0  0  0  0  0
    2.3291   -0.8848    0.0000 H   0  0  0  0  0  0  0  0  0  0  0  0
    7.2475   -0.1948    0.0000 H   0  0  0  0  0  0  0  0  0  0  0  0
    7.7508    1.3450    0.0000 H   0  0  0  0  0  0  0  0  0  0  0  0
    3.1951    0.6152    0.0000 H   0  0  0  0  0  0  0  0  0  0  0  0
    5.0225    3.0889    0.0000 H   0  0  0  0  0  0  0  0  0  0  0  0
    4.2233    2.3717    0.0000 H   0  0  0  0  0  0  0  0  0  0  0  0
  1 15  1  0  0  0  0
  2 11  1  0  0  0  0
  2 25  1  0  0  0  0
  3  9  1  0  0  0  0
  3 10  1  0  0  0  0
  3 20  1  0  0  0  0
  4 12  2  0  0  0  0
  4 18  1  0  0  0  0
  5 17  1  0  0  0  0
  5 18  2  0  0  0  0
  6 18  1  0  0  0  0
  6 26  1  0  0  0  0
  6 27  1  0  0  0  0
  7  8  1  0  0  0  0
  7  9  2  0  0  0  0
  7 11  1  0  0  0  0
  8 10  2  0  0  0  0
  8 12  1  0  0  0  0
  9 13  1  0  0  0  0
 10 19  1  0  0  0  0
 11 14  2  0  0  0  0
 12 16  1  0  0  0  0
 13 15  2  0  0  0  0
 13 21  1  0  0  0  0
 14 15  1  0  0  0  0
 14 22  1  0  0  0  0
 16 17  2  0  0  0  0
 16 23  1  0  0  0  0
 17 24  1  0  0  0  0
M  END
> <PUBCHEM_COMPOUND_CID>
10380356

> <PUBCHEM_COMPOUND_CANONICALIZED>
1

> <PUBCHEM_CACTVS_COMPLEXITY>
306

> <PUBCHEM_CACTVS_HBOND_ACCEPTOR>
4

> <PUBCHEM_CACTVS_HBOND_DONOR>
3

> <PUBCHEM_CACTVS_ROTATABLE_BOND>
1

> <PUBCHEM_CACTVS_SUBSKEYS>
AAADccBzoAAAEAAAAAAAAAAAAAAAAWAAAAA8QAAAAAAAAFgB/AAAHgBQCAABrAzBngQ91vbJkgCgAzRnZACCgCkxIqQJ2aA+bLiILuLC2dOEdAhu0BvI2jew0OMOggAAAoEKAAAEAAAFAhQAAAAAAAAAAA==

> <PUBCHEM_IUPAC_OPENEYE_NAME>
3-(2-aminopyrimidin-4-yl)-6-bromo-1H-indol-4-ol

> <PUBCHEM_IUPAC_CAS_NAME>
3-(2-amino-4-pyrimidinyl)-6-bromo-1H-indol-4-ol

> <PUBCHEM_IUPAC_NAME_MARKUP>
3-(2-aminopyrimidin-4-yl)-6-bromo-1<I>H</I>-indol-4-ol

> <PUBCHEM_IUPAC_NAME>
3-(2-aminopyrimidin-4-yl)-6-bromo-1H-indol-4-ol

> <PUBCHEM_IUPAC_SYSTEMATIC_NAME>
3-(2-azanylpyrimidin-4-yl)-6-bromanyl-1H-indol-4-ol

> <PUBCHEM_IUPAC_TRADITIONAL_NAME>
3-(2-aminopyrimidin-4-yl)-6-bromo-1H-indol-4-ol

> <PUBCHEM_IUPAC_INCHI>
InChI=1S/C12H9BrN4O/c13-6-3-9-11(10(18)4-6)7(5-16-9)8-1-2-15-12(14)17-8/h1-5,16,18H,(H2,14,15,17)

> <PUBCHEM_IUPAC_INCHIKEY>
PYQFQGXOARMGAQ-UHFFFAOYSA-N

> <PUBCHEM_XLOGP3_AA>
2

> <PUBCHEM_EXACT_MASS>
303.99597

> <PUBCHEM_MOLECULAR_FORMULA>
C12H9BrN4O

> <PUBCHEM_MOLECULAR_WEIGHT>
305.13

> <PUBCHEM_SMILES>
C1=CN=C(N=C1C2=CNC3=C2C(=CC(=C3)Br)O)N

> <PUBCHEM_OPENEYE_CAN_SMILES>
C1=CN=C(N=C1C2=CNC3=C2C(=CC(=C3)Br)O)N

> <PUBCHEM_OPENEYE_ISO_SMILES>
C1=CN=C(N=C1C2=CNC3=C2C(=CC(=C3)Br)O)N

> <PUBCHEM_CACTVS_TPSA>
87.8

> <PUBCHEM_MONOISOTOPIC_WEIGHT>
303.99597

> <PUBCHEM_TOTAL_CHARGE>
0

> <PUBCHEM_HEAVY_ATOM_COUNT>
18

> <PUBCHEM_ATOM_DEF_STEREO_COUNT>
0

> <PUBCHEM_ATOM_UDEF_STEREO_COUNT>
0

> <PUBCHEM_BOND_DEF_STEREO_COUNT>
0

> <PUBCHEM_BOND_UDEF_STEREO_COUNT>
0

> <PUBCHEM_ISOTOPIC_ATOM_COUNT>
0

> <PUBCHEM_COMPONENT_COUNT>
1

> <PUBCHEM_CACTVS_TAUTO_COUNT>
-1

> <PUBCHEM_COORDINATE_TYPE>
1
5
255

> <PUBCHEM_BONDANNOTATIONS>
11  14  8
12  16  8
13  15  8
14  15  8
16  17  8
3  10  8
3  9  8
4  12  8
4  18  8
5  17  8
5  18  8
7  11  8
7  8  8
7  9  8
8  10  8
9  13  8

$$$$
