24899915
  -OEChem-03202506362D

 33 35  0     0  0  0  0  0  0999 V2000
    3.4037    0.1203    0.0000 S   0  0  0  0  0  0  0  0  0  0  0  0
    8.6678   -0.9072    0.0000 O   0  0  0  0  0  0  0  0  0  0  0  0
    4.2716    0.6170    0.0000 O   0  0  0  0  0  0  0  0  0  0  0  0
    6.0534   -2.4418    0.0000 O   0  0  0  0  0  0  0  0  0  0  0  0
   10.4538    2.1380    0.0000 O   0  0  0  0  0  0  0  0  0  0  0  0
    7.8018   -2.4072    0.0000 O   0  0  0  0  0  0  0  0  0  0  0  0
    2.5357   -0.3763    0.0000 O   0  0  0  0  0  0  0  0  0  0  0  0
    2.9070    0.9883    0.0000 O   0  0  0  0  0  0  0  0  0  0  0  0
    3.9003   -0.7476    0.0000 O   0  0  0  0  0  0  0  0  0  0  0  0
    7.8018    0.5928    0.0000 C   0  0  0  0  0  0  0  0  0  0  0  0
    6.9357    0.0928    0.0000 C   0  0  0  0  0  0  0  0  0  0  0  0
    6.9357   -0.9072    0.0000 C   0  0  0  0  0  0  0  0  0  0  0  0
    8.6678    0.0928    0.0000 C   0  0  0  0  0  0  0  0  0  0  0  0
    7.7857    1.6344    0.0000 C   0  0  0  0  0  0  0  0  0  0  0  0
    6.0418    0.6275    0.0000 C   0  0  0  0  0  0  0  0  0  0  0  0
    6.0418   -1.4418    0.0000 C   0  0  0  0  0  0  0  0  0  0  0  0
    7.8018   -1.4072    0.0000 C   0  0  0  0  0  0  0  0  0  0  0  0
    9.5778    0.5997    0.0000 C   0  0  0  0  0  0  0  0  0  0  0  0
    5.1357    0.1137    0.0000 C   0  0  0  0  0  0  0  0  0  0  0  0
    8.6837    2.1621    0.0000 C   0  0  0  0  0  0  0  0  0  0  0  0
    5.1357   -0.9280    0.0000 C   0  0  0  0  0  0  0  0  0  0  0  0
    9.5858    1.6413    0.0000 C   0  0  0  0  0  0  0  0  0  0  0  0
    6.9140    2.1243    0.0000 C   0  0  0  0  0  0  0  0  0  0  0  0
    6.0490    1.2475    0.0000 H   0  0  0  0  0  0  0  0  0  0  0  0
   10.1111    0.2835    0.0000 H   0  0  0  0  0  0  0  0  0  0  0  0
    8.6813    2.7821    0.0000 H   0  0  0  0  0  0  0  0  0  0  0  0
    4.6000   -1.2400    0.0000 H   0  0  0  0  0  0  0  0  0  0  0  0
    7.2177    2.6648    0.0000 H   0  0  0  0  0  0  0  0  0  0  0  0
    6.3735    2.4281    0.0000 H   0  0  0  0  0  0  0  0  0  0  0  0
    6.6102    1.5838    0.0000 H   0  0  0  0  0  0  0  0  0  0  0  0
    5.5200   -2.7579    0.0000 H   0  0  0  0  0  0  0  0  0  0  0  0
   10.4561    2.7579    0.0000 H   0  0  0  0  0  0  0  0  0  0  0  0
    2.0000   -0.0643    0.0000 H   0  0  0  0  0  0  0  0  0  0  0  0
  1  3  1  0  0  0  0
  1  7  1  0  0  0  0
  1  8  2  0  0  0  0
  1  9  2  0  0  0  0
  2 13  1  0  0  0  0
  2 17  1  0  0  0  0
  3 19  1  0  0  0  0
  4 16  1  0  0  0  0
  4 31  1  0  0  0  0
  5 22  1  0  0  0  0
  5 32  1  0  0  0  0
  6 17  2  0  0  0  0
  7 33  1  0  0  0  0
 10 11  1  0  0  0  0
 10 13  2  0  0  0  0
 10 14  1  0  0  0  0
 11 12  2  0  0  0  0
 11 15  1  0  0  0  0
 12 16  1  0  0  0  0
 12 17  1  0  0  0  0
 13 18  1  0  0  0  0
 14 20  2  0  0  0  0
 14 23  1  0  0  0  0
 15 19  2  0  0  0  0
 15 24  1  0  0  0  0
 16 21  2  0  0  0  0
 18 22  2  0  0  0  0
 18 25  1  0  0  0  0
 19 21  1  0  0  0  0
 20 22  1  0  0  0  0
 20 26  1  0  0  0  0
 21 27  1  0  0  0  0
 23 28  1  0  0  0  0
 23 29  1  0  0  0  0
 23 30  1  0  0  0  0
M  END
> <PUBCHEM_COMPOUND_CID>
24899915

> <PUBCHEM_COMPOUND_CANONICALIZED>
1

> <PUBCHEM_CACTVS_COMPLEXITY>
570

> <PUBCHEM_CACTVS_HBOND_ACCEPTOR>
8

> <PUBCHEM_CACTVS_HBOND_DONOR>
3

> <PUBCHEM_CACTVS_ROTATABLE_BOND>
2

> <PUBCHEM_CACTVS_SUBSKEYS>
AAADccBwPABAAAAAAAAAAAAAAAAAAAAAAAA0YIAAAAAAAACRQAAAGgAACAAADASAmAAyDoAABoCIAiDSCDACCAAkIAAAiAEGCMgMJzaGNRqCe2Cl4BUIuQeI7PzOoAABCAAYAABAAAIQADAAAAAAAAAAAA==

> <PUBCHEM_IUPAC_OPENEYE_NAME>
(3,7-dihydroxy-1-methyl-6-oxo-benzo[c]chromen-9-yl) hydrogen sulfate

> <PUBCHEM_IUPAC_CAS_NAME>
sulfuric acid (3,7-dihydroxy-1-methyl-6-oxo-9-benzo[c][1]benzopyranyl) ester

> <PUBCHEM_IUPAC_NAME_MARKUP>
(3,7-dihydroxy-1-methyl-6-oxobenzo[c]chromen-9-yl) hydrogen sulfate

> <PUBCHEM_IUPAC_NAME>
(3,7-dihydroxy-1-methyl-6-oxobenzo[c]chromen-9-yl) hydrogen sulfate

> <PUBCHEM_IUPAC_SYSTEMATIC_NAME>
[1-methyl-3,7-bis(oxidanyl)-6-oxidanylidene-benzo[c]chromen-9-yl] hydrogen sulfate

> <PUBCHEM_IUPAC_TRADITIONAL_NAME>
sulfuric acid (3,7-dihydroxy-6-keto-1-methyl-benzo[c]chromen-9-yl) ester

> <PUBCHEM_IUPAC_INCHI>
InChI=1S/C14H10O8S/c1-6-2-7(15)3-11-12(6)9-4-8(22-23(18,19)20)5-10(16)13(9)14(17)21-11/h2-5,15-16H,1H3,(H,18,19,20)

> <PUBCHEM_IUPAC_INCHIKEY>
IOBDCMVQCAWFQQ-UHFFFAOYSA-N

> <PUBCHEM_XLOGP3_AA>
2.3

> <PUBCHEM_EXACT_MASS>
338.00963845

> <PUBCHEM_MOLECULAR_FORMULA>
C14H10O8S

> <PUBCHEM_MOLECULAR_WEIGHT>
338.29

> <PUBCHEM_SMILES>
CC1=CC(=CC2=C1C3=C(C(=CC(=C3)OS(=O)(=O)O)O)C(=O)O2)O

> <PUBCHEM_OPENEYE_CAN_SMILES>
CC1=CC(=CC2=C1C3=C(C(=CC(=C3)OS(=O)(=O)O)O)C(=O)O2)O

> <PUBCHEM_OPENEYE_ISO_SMILES>
CC1=CC(=CC2=C1C3=C(C(=CC(=C3)OS(=O)(=O)O)O)C(=O)O2)O

> <PUBCHEM_CACTVS_TPSA>
139

> <PUBCHEM_MONOISOTOPIC_WEIGHT>
338.00963845

> <PUBCHEM_TOTAL_CHARGE>
0

> <PUBCHEM_HEAVY_ATOM_COUNT>
23

> <PUBCHEM_ATOM_DEF_STEREO_COUNT>
0

> <PUBCHEM_ATOM_UDEF_STEREO_COUNT>
0

> <PUBCHEM_BOND_DEF_STEREO_COUNT>
0

> <PUBCHEM_BOND_UDEF_STEREO_COUNT>
0

> <PUBCHEM_ISOTOPIC_ATOM_COUNT>
0

> <PUBCHEM_COMPONENT_COUNT>
1

> <PUBCHEM_CACTVS_TAUTO_COUNT>
-1

> <PUBCHEM_COORDINATE_TYPE>
1
5
255

> <PUBCHEM_BONDANNOTATIONS>
10  11  8
10  13  8
10  14  8
11  12  8
11  15  8
12  16  8
12  17  8
13  18  8
14  20  8
15  19  8
16  21  8
18  22  8
19  21  8
2  13  8
2  17  8
20  22  8

$$$$
