404051
  -OEChem-03202501312D

 26 28  0     0  0  0  0  0  0999 V2000
    5.1350   -0.8100    0.0000 N   0  0  0  0  0  0  0  0  0  0  0  0
    6.0812    0.4947    0.0000 N   0  0  0  0  0  0  0  0  0  0  0  0
    3.4030   -0.8100    0.0000 N   0  0  0  0  0  0  0  0  0  0  0  0
    2.5369    0.6900    0.0000 N   0  0  0  0  0  0  0  0  0  0  0  0
    6.6648   -0.3100    0.0000 C   0  0  0  0  0  0  0  0  0  0  0  0
    5.1350    0.1900    0.0000 C   0  0  0  0  0  0  0  0  0  0  0  0
    6.0812   -1.1147    0.0000 C   0  0  0  0  0  0  0  0  0  0  0  0
    7.6648   -0.3100    0.0000 C   0  0  0  0  0  0  0  0  0  0  0  0
    4.2690    0.6900    0.0000 C   0  0  0  0  0  0  0  0  0  0  0  0
    4.2690   -1.3100    0.0000 C   0  0  0  0  0  0  0  0  0  0  0  0
    3.4030    0.1900    0.0000 C   0  0  0  0  0  0  0  0  0  0  0  0
    8.1648    0.5560    0.0000 C   0  0  0  0  0  0  0  0  0  0  0  0
    8.1648   -1.1760    0.0000 C   0  0  0  0  0  0  0  0  0  0  0  0
    9.1648    0.5560    0.0000 C   0  0  0  0  0  0  0  0  0  0  0  0
    9.1648   -1.1760    0.0000 C   0  0  0  0  0  0  0  0  0  0  0  0
    9.6648   -0.3100    0.0000 C   0  0  0  0  0  0  0  0  0  0  0  0
    6.2738   -1.7040    0.0000 H   0  0  0  0  0  0  0  0  0  0  0  0
    4.2690    1.3100    0.0000 H   0  0  0  0  0  0  0  0  0  0  0  0
    4.2690   -1.9300    0.0000 H   0  0  0  0  0  0  0  0  0  0  0  0
    7.8548    1.0930    0.0000 H   0  0  0  0  0  0  0  0  0  0  0  0
    7.8548   -1.7130    0.0000 H   0  0  0  0  0  0  0  0  0  0  0  0
    9.4748    1.0930    0.0000 H   0  0  0  0  0  0  0  0  0  0  0  0
    9.4748   -1.7130    0.0000 H   0  0  0  0  0  0  0  0  0  0  0  0
   10.2848   -0.3100    0.0000 H   0  0  0  0  0  0  0  0  0  0  0  0
    2.0000    0.3800    0.0000 H   0  0  0  0  0  0  0  0  0  0  0  0
    2.5369    1.3100    0.0000 H   0  0  0  0  0  0  0  0  0  0  0  0
  1  6  1  0  0  0  0
  1  7  1  0  0  0  0
  1 10  1  0  0  0  0
  2  5  1  0  0  0  0
  2  6  2  0  0  0  0
  3 10  2  0  0  0  0
  3 11  1  0  0  0  0
  4 11  1  0  0  0  0
  4 25  1  0  0  0  0
  4 26  1  0  0  0  0
  5  7  2  0  0  0  0
  5  8  1  0  0  0  0
  6  9  1  0  0  0  0
  7 17  1  0  0  0  0
  8 12  2  0  0  0  0
  8 13  1  0  0  0  0
  9 11  2  0  0  0  0
  9 18  1  0  0  0  0
 10 19  1  0  0  0  0
 12 14  1  0  0  0  0
 12 20  1  0  0  0  0
 13 15  2  0  0  0  0
 13 21  1  0  0  0  0
 14 16  2  0  0  0  0
 14 22  1  0  0  0  0
 15 16  1  0  0  0  0
 15 23  1  0  0  0  0
 16 24  1  0  0  0  0
M  END
> <PUBCHEM_COMPOUND_CID>
404051

> <PUBCHEM_COMPOUND_CANONICALIZED>
1

> <PUBCHEM_CACTVS_COMPLEXITY>
239

> <PUBCHEM_CACTVS_HBOND_ACCEPTOR>
3

> <PUBCHEM_CACTVS_HBOND_DONOR>
1

> <PUBCHEM_CACTVS_ROTATABLE_BOND>
1

> <PUBCHEM_CACTVS_SUBSKEYS>
AAADccBzgAAAAAAAAAAAAAAAAAAAAWAAAAA8QAAAAAAAAFgB8AAAHAAQAAAADAjBHwQ9sJ9MGACgAzZnZACCgC0xEqAJ2CA4dJiIaOLA2VGUJAhokALIyCcQgIAOAAAAAAAAAAAAAAAAAAAAAAAAAAAAAA==

> <PUBCHEM_IUPAC_OPENEYE_NAME>
2-phenylimidazo[1,2-c]pyrimidin-7-amine

> <PUBCHEM_IUPAC_CAS_NAME>
2-phenyl-7-imidazo[1,2-c]pyrimidinamine

> <PUBCHEM_IUPAC_NAME_MARKUP>
2-phenylimidazo[1,2-c]pyrimidin-7-amine

> <PUBCHEM_IUPAC_NAME>
2-phenylimidazo[1,2-c]pyrimidin-7-amine

> <PUBCHEM_IUPAC_SYSTEMATIC_NAME>
2-phenylimidazo[1,2-c]pyrimidin-7-amine

> <PUBCHEM_IUPAC_TRADITIONAL_NAME>
(2-phenylimidazo[1,2-c]pyrimidin-7-yl)amine

> <PUBCHEM_IUPAC_INCHI>
InChI=1S/C12H10N4/c13-11-6-12-15-10(7-16(12)8-14-11)9-4-2-1-3-5-9/h1-8H,13H2

> <PUBCHEM_IUPAC_INCHIKEY>
TVMNBJGPUXIPFT-UHFFFAOYSA-N

> <PUBCHEM_XLOGP3_AA>
2.4

> <PUBCHEM_EXACT_MASS>
210.090546336

> <PUBCHEM_MOLECULAR_FORMULA>
C12H10N4

> <PUBCHEM_MOLECULAR_WEIGHT>
210.23

> <PUBCHEM_SMILES>
C1=CC=C(C=C1)C2=CN3C=NC(=CC3=N2)N

> <PUBCHEM_OPENEYE_CAN_SMILES>
C1=CC=C(C=C1)C2=CN3C=NC(=CC3=N2)N

> <PUBCHEM_OPENEYE_ISO_SMILES>
C1=CC=C(C=C1)C2=CN3C=NC(=CC3=N2)N

> <PUBCHEM_CACTVS_TPSA>
56.2

> <PUBCHEM_MONOISOTOPIC_WEIGHT>
210.090546336

> <PUBCHEM_TOTAL_CHARGE>
0

> <PUBCHEM_HEAVY_ATOM_COUNT>
16

> <PUBCHEM_ATOM_DEF_STEREO_COUNT>
0

> <PUBCHEM_ATOM_UDEF_STEREO_COUNT>
0

> <PUBCHEM_BOND_DEF_STEREO_COUNT>
0

> <PUBCHEM_BOND_UDEF_STEREO_COUNT>
0

> <PUBCHEM_ISOTOPIC_ATOM_COUNT>
0

> <PUBCHEM_COMPONENT_COUNT>
1

> <PUBCHEM_CACTVS_TAUTO_COUNT>
-1

> <PUBCHEM_COORDINATE_TYPE>
1
5
255

> <PUBCHEM_BONDANNOTATIONS>
1  10  8
1  6  8
1  7  8
12  14  8
13  15  8
14  16  8
15  16  8
2  5  8
2  6  8
3  10  8
3  11  8
5  7  8
6  9  8
8  12  8
8  13  8
9  11  8

$$$$
