49830307
  -OEChem-03202502082D

 48 51  0     1  0  0  0  0  0999 V2000
    7.2566   -0.2861    0.0000 Cl  0  0  0  0  0  0  0  0  0  0  0  0
    6.1851    4.7984    0.0000 O   0  0  0  0  0  0  0  0  0  0  0  0
    3.9639    0.7901    0.0000 N   0  0  0  0  0  0  0  0  0  0  0  0
    6.5422    3.1035    0.0000 N   0  0  0  0  0  0  0  0  0  0  0  0
    4.3211   -0.9048    0.0000 N   0  0  0  0  0  0  0  0  0  0  0  0
    5.6103    0.2520    0.0000 N   0  0  0  0  0  0  0  0  0  0  0  0
    4.6783   -4.2090    0.0000 N   0  0  0  0  0  0  0  0  0  0  0  0
    2.8660   -4.4043    0.0000 N   0  0  0  0  0  0  0  0  0  0  0  0
    4.2746    1.7406    0.0000 C   0  0  3  0  0  0  0  0  0  0  0  0
    5.5637    2.8973    0.0000 C   0  0  3  0  0  0  0  0  0  0  0  0
    5.2531    1.9468    0.0000 C   0  0  0  0  0  0  0  0  0  0  0  0
    3.6067    2.4849    0.0000 C   0  0  0  0  0  0  0  0  0  0  0  0
    4.8959    3.6416    0.0000 C   0  0  0  0  0  0  0  0  0  0  0  0
    3.9174    3.4354    0.0000 C   0  0  0  0  0  0  0  0  0  0  0  0
    4.6318    0.0458    0.0000 C   0  0  0  0  0  0  0  0  0  0  0  0
    6.8529    4.0541    0.0000 C   0  0  0  0  0  0  0  0  0  0  0  0
    7.8314    4.2603    0.0000 C   0  0  0  0  0  0  0  0  0  0  0  0
    4.9889   -1.6491    0.0000 C   0  0  0  0  0  0  0  0  0  0  0  0
    4.6783   -2.5996    0.0000 C   0  0  0  0  0  0  0  0  0  0  0  0
    6.2781   -0.4923    0.0000 C   0  0  0  0  0  0  0  0  0  0  0  0
    5.9674   -1.4428    0.0000 C   0  0  0  0  0  0  0  0  0  0  0  0
    3.7320   -2.9043    0.0000 C   0  0  0  0  0  0  0  0  0  0  0  0
    5.2619   -3.4043    0.0000 C   0  0  0  0  0  0  0  0  0  0  0  0
    3.7320   -3.9043    0.0000 C   0  0  0  0  0  0  0  0  0  0  0  0
    2.8660   -2.4043    0.0000 C   0  0  0  0  0  0  0  0  0  0  0  0
    2.0000   -2.9043    0.0000 C   0  0  0  0  0  0  0  0  0  0  0  0
    2.0000   -3.9043    0.0000 C   0  0  0  0  0  0  0  0  0  0  0  0
    4.6886    1.2791    0.0000 H   0  0  0  0  0  0  0  0  0  0  0  0
    5.9778    2.4359    0.0000 H   0  0  0  0  0  0  0  0  0  0  0  0
    5.2736    1.3272    0.0000 H   0  0  0  0  0  0  0  0  0  0  0  0
    5.8669    1.8594    0.0000 H   0  0  0  0  0  0  0  0  0  0  0  0
    3.0598    2.7769    0.0000 H   0  0  0  0  0  0  0  0  0  0  0  0
    3.2242    1.9970    0.0000 H   0  0  0  0  0  0  0  0  0  0  0  0
    5.4222    3.9693    0.0000 H   0  0  0  0  0  0  0  0  0  0  0  0
    4.6646    4.2169    0.0000 H   0  0  0  0  0  0  0  0  0  0  0  0
    3.8968    4.0551    0.0000 H   0  0  0  0  0  0  0  0  0  0  0  0
    3.3036    3.5228    0.0000 H   0  0  0  0  0  0  0  0  0  0  0  0
    3.3572    0.6622    0.0000 H   0  0  0  0  0  0  0  0  0  0  0  0
    6.9563    2.6421    0.0000 H   0  0  0  0  0  0  0  0  0  0  0  0
    7.9593    3.6536    0.0000 H   0  0  0  0  0  0  0  0  0  0  0  0
    8.4381    4.3881    0.0000 H   0  0  0  0  0  0  0  0  0  0  0  0
    7.7036    4.8670    0.0000 H   0  0  0  0  0  0  0  0  0  0  0  0
    6.3815   -1.9043    0.0000 H   0  0  0  0  0  0  0  0  0  0  0  0
    5.8819   -3.4043    0.0000 H   0  0  0  0  0  0  0  0  0  0  0  0
    4.8709   -4.7984    0.0000 H   0  0  0  0  0  0  0  0  0  0  0  0
    2.8660   -1.7843    0.0000 H   0  0  0  0  0  0  0  0  0  0  0  0
    1.4631   -2.5943    0.0000 H   0  0  0  0  0  0  0  0  0  0  0  0
    1.4631   -4.2143    0.0000 H   0  0  0  0  0  0  0  0  0  0  0  0
  1 20  1  0  0  0  0
  2 16  2  0  0  0  0
  3  9  1  0  0  0  0
  3 15  1  0  0  0  0
  3 38  1  0  0  0  0
  4 10  1  0  0  0  0
  4 16  1  0  0  0  0
  4 39  1  0  0  0  0
  5 15  2  0  0  0  0
  5 18  1  0  0  0  0
  6 15  1  0  0  0  0
  6 20  2  0  0  0  0
  7 23  1  0  0  0  0
  7 24  1  0  0  0  0
  7 45  1  0  0  0  0
  8 24  1  0  0  0  0
  8 27  2  0  0  0  0
  9 11  1  0  0  0  0
  9 12  1  0  0  0  0
  9 28  1  0  0  0  0
 10 11  1  0  0  0  0
 10 13  1  0  0  0  0
 10 29  1  0  0  0  0
 11 30  1  0  0  0  0
 11 31  1  0  0  0  0
 12 14  1  0  0  0  0
 12 32  1  0  0  0  0
 12 33  1  0  0  0  0
 13 14  1  0  0  0  0
 13 34  1  0  0  0  0
 13 35  1  0  0  0  0
 14 36  1  0  0  0  0
 14 37  1  0  0  0  0
 16 17  1  0  0  0  0
 17 40  1  0  0  0  0
 17 41  1  0  0  0  0
 17 42  1  0  0  0  0
 18 19  1  0  0  0  0
 18 21  2  0  0  0  0
 19 22  1  0  0  0  0
 19 23  2  0  0  0  0
 20 21  1  0  0  0  0
 21 43  1  0  0  0  0
 22 24  2  0  0  0  0
 22 25  1  0  0  0  0
 23 44  1  0  0  0  0
 25 26  2  0  0  0  0
 25 46  1  0  0  0  0
 26 27  1  0  0  0  0
 26 47  1  0  0  0  0
 27 48  1  0  0  0  0
M  END
> <PUBCHEM_COMPOUND_CID>
49830307

> <PUBCHEM_COMPOUND_CANONICALIZED>
1

> <PUBCHEM_CACTVS_COMPLEXITY>
522

> <PUBCHEM_CACTVS_HBOND_ACCEPTOR>
5

> <PUBCHEM_CACTVS_HBOND_DONOR>
3

> <PUBCHEM_CACTVS_ROTATABLE_BOND>
4

> <PUBCHEM_CACTVS_SUBSKEYS>
AAADceB7oAAEAAAAAAAAAAAAAAAAAWAAAAA8WIAAAAAAAFgB/gAAHgIQAAAADCrBnyQ/sN7JkACoAzd3dACCgCmxB6AJ2aA4ZpiIKOLB29GEJAholgLIyCcQgIAOgAAAAAAAAAAAAAAACAAAAAAAAAAAAA==

> <PUBCHEM_IUPAC_OPENEYE_NAME>
N-[3-[[4-chloro-6-(1H-pyrrolo[2,3-b]pyridin-3-yl)pyrimidin-2-yl]amino]cyclohexyl]acetamide

> <PUBCHEM_IUPAC_CAS_NAME>
N-[3-[[4-chloro-6-(1H-pyrrolo[2,3-b]pyridin-3-yl)-2-pyrimidinyl]amino]cyclohexyl]acetamide

> <PUBCHEM_IUPAC_NAME_MARKUP>
<I>N</I>-[3-[[4-chloro-6-(1<I>H</I>-pyrrolo[2,3-b]pyridin-3-yl)pyrimidin-2-yl]amino]cyclohexyl]acetamide

> <PUBCHEM_IUPAC_NAME>
N-[3-[[4-chloro-6-(1H-pyrrolo[2,3-b]pyridin-3-yl)pyrimidin-2-yl]amino]cyclohexyl]acetamide

> <PUBCHEM_IUPAC_SYSTEMATIC_NAME>
N-[3-[[4-chloranyl-6-(1H-pyrrolo[2,3-b]pyridin-3-yl)pyrimidin-2-yl]amino]cyclohexyl]ethanamide

> <PUBCHEM_IUPAC_TRADITIONAL_NAME>
N-[3-[[4-chloro-6-(1H-pyrrolo[2,3-b]pyridin-3-yl)pyrimidin-2-yl]amino]cyclohexyl]acetamide

> <PUBCHEM_IUPAC_INCHI>
InChI=1S/C19H21ClN6O/c1-11(27)23-12-4-2-5-13(8-12)24-19-25-16(9-17(20)26-19)15-10-22-18-14(15)6-3-7-21-18/h3,6-7,9-10,12-13H,2,4-5,8H2,1H3,(H,21,22)(H,23,27)(H,24,25,26)

> <PUBCHEM_IUPAC_INCHIKEY>
SKKRZILJUKYLJS-UHFFFAOYSA-N

> <PUBCHEM_XLOGP3_AA>
3.2

> <PUBCHEM_EXACT_MASS>
384.1465370

> <PUBCHEM_MOLECULAR_FORMULA>
C19H21ClN6O

> <PUBCHEM_MOLECULAR_WEIGHT>
384.9

> <PUBCHEM_SMILES>
CC(=O)NC1CCCC(C1)NC2=NC(=CC(=N2)Cl)C3=CNC4=C3C=CC=N4

> <PUBCHEM_OPENEYE_CAN_SMILES>
CC(=O)NC1CCCC(C1)NC2=NC(=CC(=N2)Cl)C3=CNC4=C3C=CC=N4

> <PUBCHEM_OPENEYE_ISO_SMILES>
CC(=O)NC1CCCC(C1)NC2=NC(=CC(=N2)Cl)C3=CNC4=C3C=CC=N4

> <PUBCHEM_CACTVS_TPSA>
95.6

> <PUBCHEM_MONOISOTOPIC_WEIGHT>
384.1465370

> <PUBCHEM_TOTAL_CHARGE>
0

> <PUBCHEM_HEAVY_ATOM_COUNT>
27

> <PUBCHEM_ATOM_DEF_STEREO_COUNT>
0

> <PUBCHEM_ATOM_UDEF_STEREO_COUNT>
2

> <PUBCHEM_BOND_DEF_STEREO_COUNT>
0

> <PUBCHEM_BOND_UDEF_STEREO_COUNT>
0

> <PUBCHEM_ISOTOPIC_ATOM_COUNT>
0

> <PUBCHEM_COMPONENT_COUNT>
1

> <PUBCHEM_CACTVS_TAUTO_COUNT>
-1

> <PUBCHEM_COORDINATE_TYPE>
1
5
255

> <PUBCHEM_BONDANNOTATIONS>
18  21  8
19  22  8
19  23  8
20  21  8
22  24  8
22  25  8
25  26  8
26  27  8
9  3  3
10  4  3
5  15  8
5  18  8
6  15  8
6  20  8
7  23  8
7  24  8
8  24  8
8  27  8

$$$$
