53246941
  -OEChem-03202500402D

 64 68  0     1  0  0  0  0  0999 V2000
    4.3272    5.1896    0.0000 O   0  0  0  0  0  0  0  0  0  0  0  0
    5.1954   -1.0734    0.0000 O   0  0  0  0  0  0  0  0  0  0  0  0
    4.0558    2.5624    0.0000 N   0  0  0  0  0  0  0  0  0  0  0  0
    2.8418    4.4124    0.0000 N   0  0  0  0  0  0  0  0  0  0  0  0
    6.2774   -2.5556    0.0000 N   0  0  0  0  0  0  0  0  0  0  0  0
    6.9186   -0.8990    0.0000 N   0  0  0  0  0  0  0  0  0  0  0  0
    7.8787   -2.3935    0.0000 N   0  0  0  0  0  0  0  0  0  0  0  0
    2.9770   -3.6076    0.0000 N   0  0  0  0  0  0  0  0  0  0  0  0
    3.1352    2.2240    0.0000 C   0  0  1  0  0  0  0  0  0  0  0  0
    2.2953    2.7304    0.0000 C   0  0  0  0  0  0  0  0  0  0  0  0
    4.8648    1.9746    0.0000 C   0  0  0  0  0  0  0  0  0  0  0  0
    4.3648    3.5135    0.0000 C   0  0  0  0  0  0  0  0  0  0  0  0
    2.1650    3.7025    0.0000 C   0  0  0  0  0  0  0  0  0  0  0  0
    5.6738    2.5624    0.0000 C   0  0  0  0  0  0  0  0  0  0  0  0
    3.0402    1.2285    0.0000 C   0  0  0  0  0  0  0  0  0  0  0  0
    5.3648    3.5135    0.0000 C   0  0  0  0  0  0  0  0  0  0  0  0
    3.8190    4.3284    0.0000 C   0  0  0  0  0  0  0  0  0  0  0  0
    4.9577    0.9372    0.0000 C   0  0  0  0  0  0  0  0  0  0  0  0
    6.6318    2.1535    0.0000 C   0  0  0  0  0  0  0  0  0  0  0  0
    5.9060    0.5062    0.0000 C   0  0  0  0  0  0  0  0  0  0  0  0
    6.7487    1.1184    0.0000 C   0  0  0  0  0  0  0  0  0  0  0  0
    5.3005   -2.3422    0.0000 C   0  0  0  0  0  0  0  0  0  0  0  0
    4.6272   -3.0816    0.0000 C   0  0  0  0  0  0  0  0  0  0  0  0
    7.0193   -1.8939    0.0000 C   0  0  0  0  0  0  0  0  0  0  0  0
    6.0067   -0.4887    0.0000 C   0  0  0  0  0  0  0  0  0  0  0  0
    6.6759   -3.4663    0.0000 C   0  0  0  0  0  0  0  0  0  0  0  0
    3.6502   -2.8683    0.0000 C   0  0  0  0  0  0  0  0  0  0  0  0
    7.6708   -3.3656    0.0000 C   0  0  0  0  0  0  0  0  0  0  0  0
    6.2657   -4.3783    0.0000 C   0  0  0  0  0  0  0  0  0  0  0  0
    8.2555   -4.1769    0.0000 C   0  0  0  0  0  0  0  0  0  0  0  0
    6.8503   -5.1896    0.0000 C   0  0  0  0  0  0  0  0  0  0  0  0
    7.8452   -5.0889    0.0000 C   0  0  0  0  0  0  0  0  0  0  0  0
    2.0000   -3.3943    0.0000 C   0  0  0  0  0  0  0  0  0  0  0  0
    3.2807   -4.5604    0.0000 C   0  0  0  0  0  0  0  0  0  0  0  0
    3.6262    1.8454    0.0000 H   0  0  0  0  0  0  0  0  0  0  0  0
    1.6779    2.7874    0.0000 H   0  0  0  0  0  0  0  0  0  0  0  0
    2.1019    2.1414    0.0000 H   0  0  0  0  0  0  0  0  0  0  0  0
    1.8232    4.2198    0.0000 H   0  0  0  0  0  0  0  0  0  0  0  0
    1.5844    3.4849    0.0000 H   0  0  0  0  0  0  0  0  0  0  0  0
    2.4230    1.2874    0.0000 H   0  0  0  0  0  0  0  0  0  0  0  0
    2.9813    0.6113    0.0000 H   0  0  0  0  0  0  0  0  0  0  0  0
    3.6574    1.1696    0.0000 H   0  0  0  0  0  0  0  0  0  0  0  0
    5.7292    4.0151    0.0000 H   0  0  0  0  0  0  0  0  0  0  0  0
    2.6224    4.9922    0.0000 H   0  0  0  0  0  0  0  0  0  0  0  0
    4.4519    0.5786    0.0000 H   0  0  0  0  0  0  0  0  0  0  0  0
    7.1292    2.5237    0.0000 H   0  0  0  0  0  0  0  0  0  0  0  0
    7.3160    0.8684    0.0000 H   0  0  0  0  0  0  0  0  0  0  0  0
    5.5360   -1.7687    0.0000 H   0  0  0  0  0  0  0  0  0  0  0  0
    4.7765   -2.0107    0.0000 H   0  0  0  0  0  0  0  0  0  0  0  0
    4.3918   -3.6552    0.0000 H   0  0  0  0  0  0  0  0  0  0  0  0
    5.1512   -3.4131    0.0000 H   0  0  0  0  0  0  0  0  0  0  0  0
    3.8857   -2.2947    0.0000 H   0  0  0  0  0  0  0  0  0  0  0  0
    3.1263   -2.5368    0.0000 H   0  0  0  0  0  0  0  0  0  0  0  0
    7.4216   -0.5365    0.0000 H   0  0  0  0  0  0  0  0  0  0  0  0
    5.6488   -4.4407    0.0000 H   0  0  0  0  0  0  0  0  0  0  0  0
    8.8724   -4.1145    0.0000 H   0  0  0  0  0  0  0  0  0  0  0  0
    6.5960   -5.7550    0.0000 H   0  0  0  0  0  0  0  0  0  0  0  0
    8.2077   -5.5919    0.0000 H   0  0  0  0  0  0  0  0  0  0  0  0
    2.1323   -2.7886    0.0000 H   0  0  0  0  0  0  0  0  0  0  0  0
    1.3943   -3.2620    0.0000 H   0  0  0  0  0  0  0  0  0  0  0  0
    1.8677   -4.0000    0.0000 H   0  0  0  0  0  0  0  0  0  0  0  0
    2.6900   -4.7487    0.0000 H   0  0  0  0  0  0  0  0  0  0  0  0
    3.4690   -5.1511    0.0000 H   0  0  0  0  0  0  0  0  0  0  0  0
    3.8714   -4.3721    0.0000 H   0  0  0  0  0  0  0  0  0  0  0  0
  1 17  2  0  0  0  0
  2 25  2  0  0  0  0
  3  9  1  0  0  0  0
  3 11  1  0  0  0  0
  3 12  1  0  0  0  0
  4 13  1  0  0  0  0
  4 17  1  0  0  0  0
  4 44  1  0  0  0  0
  5 22  1  0  0  0  0
  5 24  1  0  0  0  0
  5 26  1  0  0  0  0
  6 24  1  0  0  0  0
  6 25  1  0  0  0  0
  6 54  1  0  0  0  0
  7 24  2  0  0  0  0
  7 28  1  0  0  0  0
  8 27  1  0  0  0  0
  8 33  1  0  0  0  0
  8 34  1  0  0  0  0
  9 10  1  0  0  0  0
  9 15  1  6  0  0  0
  9 35  1  0  0  0  0
 10 13  1  0  0  0  0
 10 36  1  0  0  0  0
 10 37  1  0  0  0  0
 11 14  2  0  0  0  0
 11 18  1  0  0  0  0
 12 16  2  0  0  0  0
 12 17  1  0  0  0  0
 13 38  1  0  0  0  0
 13 39  1  0  0  0  0
 14 16  1  0  0  0  0
 14 19  1  0  0  0  0
 15 40  1  0  0  0  0
 15 41  1  0  0  0  0
 15 42  1  0  0  0  0
 16 43  1  0  0  0  0
 18 20  2  0  0  0  0
 18 45  1  0  0  0  0
 19 21  2  0  0  0  0
 19 46  1  0  0  0  0
 20 21  1  0  0  0  0
 20 25  1  0  0  0  0
 21 47  1  0  0  0  0
 22 23  1  0  0  0  0
 22 48  1  0  0  0  0
 22 49  1  0  0  0  0
 23 27  1  0  0  0  0
 23 50  1  0  0  0  0
 23 51  1  0  0  0  0
 26 28  1  0  0  0  0
 26 29  2  0  0  0  0
 27 52  1  0  0  0  0
 27 53  1  0  0  0  0
 28 30  2  0  0  0  0
 29 31  1  0  0  0  0
 29 55  1  0  0  0  0
 30 32  1  0  0  0  0
 30 56  1  0  0  0  0
 31 32  2  0  0  0  0
 31 57  1  0  0  0  0
 32 58  1  0  0  0  0
 33 59  1  0  0  0  0
 33 60  1  0  0  0  0
 33 61  1  0  0  0  0
 34 62  1  0  0  0  0
 34 63  1  0  0  0  0
 34 64  1  0  0  0  0
M  END
> <PUBCHEM_COMPOUND_CID>
53246941

> <PUBCHEM_COMPOUND_CANONICALIZED>
1

> <PUBCHEM_CACTVS_COMPLEXITY>
747

> <PUBCHEM_CACTVS_HBOND_ACCEPTOR>
4

> <PUBCHEM_CACTVS_HBOND_DONOR>
2

> <PUBCHEM_CACTVS_ROTATABLE_BOND>
6

> <PUBCHEM_CACTVS_SUBSKEYS>
AAADceB7sAAAAAAAAAAAAAAAAAAAAWLAAAAwYAAABYAAAFix/gAAHgAQAAAADCjBngQz0PfMEACoAyVydACCgC0nEqAJ2KG4dNiIaPLA3bGUIQholwLIyaccicCeQAAAQAACACCAAACAAAQAQAAAAAAAAA==

> <PUBCHEM_IUPAC_OPENEYE_NAME>
(5R)-N-[1-[3-(dimethylamino)propyl]benzimidazol-2-yl]-5-methyl-1-oxo-2,3,4,5-tetrahydro-[1,4]diazepino[1,2-a]indole-8-carboxamide

> <PUBCHEM_IUPAC_CAS_NAME>
(5R)-N-[1-[3-(dimethylamino)propyl]-2-benzimidazolyl]-5-methyl-1-oxo-2,3,4,5-tetrahydro-[1,4]diazepino[1,2-a]indole-8-carboxamide

> <PUBCHEM_IUPAC_NAME_MARKUP>
(5<I>R</I>)-<I>N</I>-[1-[3-(dimethylamino)propyl]benzimidazol-2-yl]-5-methyl-1-oxo-2,3,4,5-tetrahydro-[1,4]diazepino[1,2-a]indole-8-carboxamide

> <PUBCHEM_IUPAC_NAME>
(5R)-N-[1-[3-(dimethylamino)propyl]benzimidazol-2-yl]-5-methyl-1-oxo-2,3,4,5-tetrahydro-[1,4]diazepino[1,2-a]indole-8-carboxamide

> <PUBCHEM_IUPAC_SYSTEMATIC_NAME>
(5R)-N-[1-[3-(dimethylamino)propyl]benzimidazol-2-yl]-5-methyl-1-oxidanylidene-2,3,4,5-tetrahydro-[1,4]diazepino[1,2-a]indole-8-carboxamide

> <PUBCHEM_IUPAC_TRADITIONAL_NAME>
(5R)-N-[1-[3-(dimethylamino)propyl]benzimidazol-2-yl]-1-keto-5-methyl-2,3,4,5-tetrahydro-[1,4]diazepin[1,2-a]indole-8-carboxamide

> <PUBCHEM_IUPAC_INCHI>
InChI=1S/C26H30N6O2/c1-17-11-12-27-25(34)23-15-18-9-10-19(16-22(18)32(17)23)24(33)29-26-28-20-7-4-5-8-21(20)31(26)14-6-13-30(2)3/h4-5,7-10,15-17H,6,11-14H2,1-3H3,(H,27,34)(H,28,29,33)/t17-/m1/s1

> <PUBCHEM_IUPAC_INCHIKEY>
ZHMXXVNQAFCXKK-QGZVFWFLSA-N

> <PUBCHEM_XLOGP3_AA>
3.1

> <PUBCHEM_EXACT_MASS>
458.24302422

> <PUBCHEM_MOLECULAR_FORMULA>
C26H30N6O2

> <PUBCHEM_MOLECULAR_WEIGHT>
458.6

> <PUBCHEM_SMILES>
C[C@@H]1CCNC(=O)C2=CC3=C(N12)C=C(C=C3)C(=O)NC4=NC5=CC=CC=C5N4CCCN(C)C

> <PUBCHEM_OPENEYE_CAN_SMILES>
CC1CCNC(=O)C2=CC3=C(N12)C=C(C=C3)C(=O)NC4=NC5=CC=CC=C5N4CCCN(C)C

> <PUBCHEM_OPENEYE_ISO_SMILES>
C[C@@H]1CCNC(=O)C2=CC3=C(N12)C=C(C=C3)C(=O)NC4=NC5=CC=CC=C5N4CCCN(C)C

> <PUBCHEM_CACTVS_TPSA>
84.2

> <PUBCHEM_MONOISOTOPIC_WEIGHT>
458.24302422

> <PUBCHEM_TOTAL_CHARGE>
0

> <PUBCHEM_HEAVY_ATOM_COUNT>
34

> <PUBCHEM_ATOM_DEF_STEREO_COUNT>
1

> <PUBCHEM_ATOM_UDEF_STEREO_COUNT>
0

> <PUBCHEM_BOND_DEF_STEREO_COUNT>
0

> <PUBCHEM_BOND_UDEF_STEREO_COUNT>
0

> <PUBCHEM_ISOTOPIC_ATOM_COUNT>
0

> <PUBCHEM_COMPONENT_COUNT>
1

> <PUBCHEM_CACTVS_TAUTO_COUNT>
-1

> <PUBCHEM_COORDINATE_TYPE>
1
5
255

> <PUBCHEM_BONDANNOTATIONS>
11  14  8
11  18  8
12  16  8
14  16  8
14  19  8
18  20  8
19  21  8
20  21  8
26  28  8
26  29  8
28  30  8
29  31  8
3  11  8
3  12  8
30  32  8
31  32  8
5  24  8
5  26  8
7  24  8
7  28  8
9  15  6

$$$$
