3109350
  -OEChem-03202502292D

 48 52  0     0  0  0  0  0  0999 V2000
    7.4290   -1.0029    0.0000 O   0  0  0  0  0  0  0  0  0  0  0  0
    8.2629    0.8000    0.0000 O   0  0  0  0  0  0  0  0  0  0  0  0
    8.2629    4.8000    0.0000 O   0  0  0  0  0  0  0  0  0  0  0  0
    6.1836   -2.2775    0.0000 N   0  0  0  0  0  0  0  0  0  0  0  0
    5.1837   -2.2890    0.0000 N   0  0  0  0  0  0  0  0  0  0  0  0
    5.6543    0.2554    0.0000 N   0  0  0  0  0  0  0  0  0  0  0  0
    6.5145    0.7654    0.0000 N   0  0  0  0  0  0  0  0  0  0  0  0
    9.1289    2.3000    0.0000 N   0  0  0  0  0  0  0  0  0  0  0  0
    9.1289    3.3000    0.0000 N   0  0  0  0  0  0  0  0  0  0  0  0
    4.8637   -1.3416    0.0000 C   0  0  0  0  0  0  0  0  0  0  0  0
    5.6659   -0.7445    0.0000 C   0  0  0  0  0  0  0  0  0  0  0  0
    6.4816   -1.3229    0.0000 C   0  0  0  0  0  0  0  0  0  0  0  0
    3.9091   -1.0436    0.0000 C   0  0  0  0  0  0  0  0  0  0  0  0
    6.7807   -3.0796    0.0000 C   0  0  0  0  0  0  0  0  0  0  0  0
    7.3969    2.3000    0.0000 C   0  0  0  0  0  0  0  0  0  0  0  0
    7.3969    3.3000    0.0000 C   0  0  0  0  0  0  0  0  0  0  0  0
    6.5029    1.7653    0.0000 C   0  0  0  0  0  0  0  0  0  0  0  0
    3.6899   -0.0679    0.0000 C   0  0  0  0  0  0  0  0  0  0  0  0
    3.1738   -1.7213    0.0000 C   0  0  0  0  0  0  0  0  0  0  0  0
    6.3846   -3.9978    0.0000 C   0  0  0  0  0  0  0  0  0  0  0  0
    7.7740   -2.9636    0.0000 C   0  0  0  0  0  0  0  0  0  0  0  0
    8.2629    1.8000    0.0000 C   0  0  0  0  0  0  0  0  0  0  0  0
    6.5029    3.8346    0.0000 C   0  0  0  0  0  0  0  0  0  0  0  0
    5.5969    2.2792    0.0000 C   0  0  0  0  0  0  0  0  0  0  0  0
    8.2629    3.8000    0.0000 C   0  0  0  0  0  0  0  0  0  0  0  0
    5.5969    3.3208    0.0000 C   0  0  0  0  0  0  0  0  0  0  0  0
    2.7354    0.2301    0.0000 C   0  0  0  0  0  0  0  0  0  0  0  0
    2.2192   -1.4233    0.0000 C   0  0  0  0  0  0  0  0  0  0  0  0
    6.9817   -4.8000    0.0000 C   0  0  0  0  0  0  0  0  0  0  0  0
    8.3711   -3.7658    0.0000 C   0  0  0  0  0  0  0  0  0  0  0  0
    2.0000   -0.4476    0.0000 C   0  0  0  0  0  0  0  0  0  0  0  0
    7.9749   -4.6840    0.0000 C   0  0  0  0  0  0  0  0  0  0  0  0
    4.8251   -2.7948    0.0000 H   0  0  0  0  0  0  0  0  0  0  0  0
    4.1458    0.3522    0.0000 H   0  0  0  0  0  0  0  0  0  0  0  0
    3.3097   -2.3262    0.0000 H   0  0  0  0  0  0  0  0  0  0  0  0
    5.7688   -4.0698    0.0000 H   0  0  0  0  0  0  0  0  0  0  0  0
    8.0196   -2.3943    0.0000 H   0  0  0  0  0  0  0  0  0  0  0  0
    6.5101    4.4546    0.0000 H   0  0  0  0  0  0  0  0  0  0  0  0
    5.0611    1.9671    0.0000 H   0  0  0  0  0  0  0  0  0  0  0  0
    5.0611    3.6329    0.0000 H   0  0  0  0  0  0  0  0  0  0  0  0
    2.5994    0.8350    0.0000 H   0  0  0  0  0  0  0  0  0  0  0  0
    1.7633   -1.8435    0.0000 H   0  0  0  0  0  0  0  0  0  0  0  0
    9.6658    1.9900    0.0000 H   0  0  0  0  0  0  0  0  0  0  0  0
    9.6658    3.6100    0.0000 H   0  0  0  0  0  0  0  0  0  0  0  0
    6.7361   -5.3693    0.0000 H   0  0  0  0  0  0  0  0  0  0  0  0
    8.9869   -3.6938    0.0000 H   0  0  0  0  0  0  0  0  0  0  0  0
    1.4082   -0.2629    0.0000 H   0  0  0  0  0  0  0  0  0  0  0  0
    8.3451   -5.1813    0.0000 H   0  0  0  0  0  0  0  0  0  0  0  0
  1 12  2  0  0  0  0
  2 22  2  0  0  0  0
  3 25  2  0  0  0  0
  4  5  1  0  0  0  0
  4 12  1  0  0  0  0
  4 14  1  0  0  0  0
  5 10  1  0  0  0  0
  5 33  1  0  0  0  0
  6  7  2  0  0  0  0
  6 11  1  0  0  0  0
  7 17  1  0  0  0  0
  8  9  1  0  0  0  0
  8 22  1  0  0  0  0
  8 43  1  0  0  0  0
  9 25  1  0  0  0  0
  9 44  1  0  0  0  0
 10 11  2  0  0  0  0
 10 13  1  0  0  0  0
 11 12  1  0  0  0  0
 13 18  2  0  0  0  0
 13 19  1  0  0  0  0
 14 20  2  0  0  0  0
 14 21  1  0  0  0  0
 15 16  2  0  0  0  0
 15 17  1  0  0  0  0
 15 22  1  0  0  0  0
 16 23  1  0  0  0  0
 16 25  1  0  0  0  0
 17 24  2  0  0  0  0
 18 27  1  0  0  0  0
 18 34  1  0  0  0  0
 19 28  2  0  0  0  0
 19 35  1  0  0  0  0
 20 29  1  0  0  0  0
 20 36  1  0  0  0  0
 21 30  2  0  0  0  0
 21 37  1  0  0  0  0
 23 26  2  0  0  0  0
 23 38  1  0  0  0  0
 24 26  1  0  0  0  0
 24 39  1  0  0  0  0
 26 40  1  0  0  0  0
 27 31  2  0  0  0  0
 27 41  1  0  0  0  0
 28 31  1  0  0  0  0
 28 42  1  0  0  0  0
 29 32  2  0  0  0  0
 29 45  1  0  0  0  0
 30 32  1  0  0  0  0
 30 46  1  0  0  0  0
 31 47  1  0  0  0  0
 32 48  1  0  0  0  0
M  END
> <PUBCHEM_COMPOUND_CID>
3109350

> <PUBCHEM_COMPOUND_CANONICALIZED>
1

> <PUBCHEM_CACTVS_COMPLEXITY>
828

> <PUBCHEM_CACTVS_HBOND_ACCEPTOR>
6

> <PUBCHEM_CACTVS_HBOND_DONOR>
3

> <PUBCHEM_CACTVS_ROTATABLE_BOND>
4

> <PUBCHEM_CACTVS_SUBSKEYS>
AAADceB7sAAAAAAAAAAAAAAAAAAAAQAAAAA8YMEAAAAAAACxUAAAHgAYAAAADAiBmAAwwIJiAACKAiVSUACCBAAlAgIaqAGAZMgIYDrA1ZGUIYhghADIyccdiICOgAAAQAASAAAAAACAACQAAAAAAAAAAA==

> <PUBCHEM_IUPAC_OPENEYE_NAME>
5-[(3-oxo-2,5-diphenyl-1H-pyrazol-4-yl)azo]-2,3-dihydrophthalazine-1,4-dione

> <PUBCHEM_IUPAC_CAS_NAME>
5-[(3-oxo-2,5-diphenyl-1H-pyrazol-4-yl)azo]-2,3-dihydrophthalazine-1,4-dione

> <PUBCHEM_IUPAC_NAME_MARKUP>
5-[(3-oxo-2,5-diphenyl-1<I>H</I>-pyrazol-4-yl)diazenyl]-2,3-dihydrophthalazine-1,4-dione

> <PUBCHEM_IUPAC_NAME>
5-[(3-oxo-2,5-diphenyl-1H-pyrazol-4-yl)diazenyl]-2,3-dihydrophthalazine-1,4-dione

> <PUBCHEM_IUPAC_SYSTEMATIC_NAME>
5-[(3-oxidanylidene-2,5-diphenyl-1H-pyrazol-4-yl)diazenyl]-2,3-dihydrophthalazine-1,4-dione

> <PUBCHEM_IUPAC_TRADITIONAL_NAME>
5-[(5-keto-1,3-diphenyl-3-pyrazolin-4-yl)azo]-2,3-dihydrophthalazine-1,4-quinone

> <PUBCHEM_IUPAC_INCHI>
InChI=1S/C23H16N6O3/c30-21-16-12-7-13-17(18(16)22(31)27-26-21)24-25-20-19(14-8-3-1-4-9-14)28-29(23(20)32)15-10-5-2-6-11-15/h1-13,28H,(H,26,30)(H,27,31)

> <PUBCHEM_IUPAC_INCHIKEY>
NYHNQADANUSVEH-UHFFFAOYSA-N

> <PUBCHEM_XLOGP3_AA>
3.6

> <PUBCHEM_EXACT_MASS>
424.12838839

> <PUBCHEM_MOLECULAR_FORMULA>
C23H16N6O3

> <PUBCHEM_MOLECULAR_WEIGHT>
424.4

> <PUBCHEM_SMILES>
C1=CC=C(C=C1)C2=C(C(=O)N(N2)C3=CC=CC=C3)N=NC4=CC=CC5=C4C(=O)NNC5=O

> <PUBCHEM_OPENEYE_CAN_SMILES>
C1=CC=C(C=C1)C2=C(C(=O)N(N2)C3=CC=CC=C3)N=NC4=CC=CC5=C4C(=O)NNC5=O

> <PUBCHEM_OPENEYE_ISO_SMILES>
C1=CC=C(C=C1)C2=C(C(=O)N(N2)C3=CC=CC=C3)N=NC4=CC=CC5=C4C(=O)NNC5=O

> <PUBCHEM_CACTVS_TPSA>
115

> <PUBCHEM_MONOISOTOPIC_WEIGHT>
424.12838839

> <PUBCHEM_TOTAL_CHARGE>
0

> <PUBCHEM_HEAVY_ATOM_COUNT>
32

> <PUBCHEM_ATOM_DEF_STEREO_COUNT>
0

> <PUBCHEM_ATOM_UDEF_STEREO_COUNT>
0

> <PUBCHEM_BOND_DEF_STEREO_COUNT>
0

> <PUBCHEM_BOND_UDEF_STEREO_COUNT>
0

> <PUBCHEM_ISOTOPIC_ATOM_COUNT>
0

> <PUBCHEM_COMPONENT_COUNT>
1

> <PUBCHEM_CACTVS_TAUTO_COUNT>
-1

> <PUBCHEM_COORDINATE_TYPE>
1
5
255

> <PUBCHEM_BONDANNOTATIONS>
10  11  8
11  12  8
13  18  8
13  19  8
14  20  8
14  21  8
15  16  8
15  17  8
15  22  8
16  23  8
16  25  8
17  24  8
18  27  8
19  28  8
20  29  8
21  30  8
23  26  8
24  26  8
27  31  8
28  31  8
29  32  8
30  32  8
4  12  8
4  5  8
5  10  8
8  22  8
8  9  8
9  25  8

$$$$
