49831031
  -OEChem-03202504242D

 29 31  0     0  0  0  0  0  0999 V2000
    3.3674   -1.9614    0.0000 F   0  0  0  0  0  0  0  0  0  0  0  0
    2.0000   -1.6007    0.0000 F   0  0  0  0  0  0  0  0  0  0  0  0
    2.3608   -0.2332    0.0000 F   0  0  0  0  0  0  0  0  0  0  0  0
    6.3942   -1.0732    0.0000 O   0  0  0  0  0  0  0  0  0  0  0  0
    8.1426    1.9614    0.0000 O   0  0  0  0  0  0  0  0  0  0  0  0
    6.3942    1.9268    0.0000 O   0  0  0  0  0  0  0  0  0  0  0  0
    8.1542   -1.1078    0.0000 C   0  0  0  0  0  0  0  0  0  0  0  0
    9.0602   -0.5940    0.0000 C   0  0  0  0  0  0  0  0  0  0  0  0
    7.2602   -0.5732    0.0000 C   0  0  0  0  0  0  0  0  0  0  0  0
    9.0602    0.4476    0.0000 C   0  0  0  0  0  0  0  0  0  0  0  0
    7.2602    0.4268    0.0000 C   0  0  0  0  0  0  0  0  0  0  0  0
    8.1542    0.9615    0.0000 C   0  0  0  0  0  0  0  0  0  0  0  0
    5.5282    0.4268    0.0000 C   0  0  0  0  0  0  0  0  0  0  0  0
    6.3942    0.9268    0.0000 C   0  0  0  0  0  0  0  0  0  0  0  0
    5.5282   -0.5732    0.0000 C   0  0  0  0  0  0  0  0  0  0  0  0
    4.6342   -1.1078    0.0000 C   0  0  0  0  0  0  0  0  0  0  0  0
    4.6342    0.9615    0.0000 C   0  0  0  0  0  0  0  0  0  0  0  0
    3.7282   -0.5940    0.0000 C   0  0  0  0  0  0  0  0  0  0  0  0
    3.7282    0.4476    0.0000 C   0  0  0  0  0  0  0  0  0  0  0  0
    2.8641   -1.0973    0.0000 C   0  0  0  0  0  0  0  0  0  0  0  0
    7.7496   -1.5776    0.0000 H   0  0  0  0  0  0  0  0  0  0  0  0
    8.5478   -1.5869    0.0000 H   0  0  0  0  0  0  0  0  0  0  0  0
    9.2693   -1.1777    0.0000 H   0  0  0  0  0  0  0  0  0  0  0  0
    9.6711   -0.4879    0.0000 H   0  0  0  0  0  0  0  0  0  0  0  0
    9.6711    0.3415    0.0000 H   0  0  0  0  0  0  0  0  0  0  0  0
    9.2693    1.0313    0.0000 H   0  0  0  0  0  0  0  0  0  0  0  0
    4.6414   -1.7278    0.0000 H   0  0  0  0  0  0  0  0  0  0  0  0
    4.6414    1.5814    0.0000 H   0  0  0  0  0  0  0  0  0  0  0  0
    3.1924    0.7597    0.0000 H   0  0  0  0  0  0  0  0  0  0  0  0
  1 20  1  0  0  0  0
  2 20  1  0  0  0  0
  3 20  1  0  0  0  0
  4  9  1  0  0  0  0
  4 15  1  0  0  0  0
  5 12  2  0  0  0  0
  6 14  2  0  0  0  0
  7  8  1  0  0  0  0
  7  9  1  0  0  0  0
  7 21  1  0  0  0  0
  7 22  1  0  0  0  0
  8 10  1  0  0  0  0
  8 23  1  0  0  0  0
  8 24  1  0  0  0  0
  9 11  2  0  0  0  0
 10 12  1  0  0  0  0
 10 25  1  0  0  0  0
 10 26  1  0  0  0  0
 11 12  1  0  0  0  0
 11 14  1  0  0  0  0
 13 14  1  0  0  0  0
 13 15  2  0  0  0  0
 13 17  1  0  0  0  0
 15 16  1  0  0  0  0
 16 18  2  0  0  0  0
 16 27  1  0  0  0  0
 17 19  2  0  0  0  0
 17 28  1  0  0  0  0
 18 19  1  0  0  0  0
 18 20  1  0  0  0  0
 19 29  1  0  0  0  0
M  END
> <PUBCHEM_COMPOUND_CID>
49831031

> <PUBCHEM_COMPOUND_CANONICALIZED>
1

> <PUBCHEM_CACTVS_COMPLEXITY>
492

> <PUBCHEM_CACTVS_HBOND_ACCEPTOR>
6

> <PUBCHEM_CACTVS_HBOND_DONOR>
0

> <PUBCHEM_CACTVS_ROTATABLE_BOND>
0

> <PUBCHEM_CACTVS_SUBSKEYS>
AAADccBwMYAAAAAAAAAAAAAAAAAAAAAAAAAwQIAAAAAAAACRAAAAGwAAAAAADASAmBAwBoAABACIAqBSAAACCAAkIAAIiAEGCMgMJjaMNRqCOWCk4BEIqYeIzPDOQAABAAAIAACAAAIAABAAAAAAAAAAAA==

> <PUBCHEM_IUPAC_OPENEYE_NAME>
6-(trifluoromethyl)-3,4-dihydro-2H-xanthene-1,9-dione

> <PUBCHEM_IUPAC_CAS_NAME>
6-(trifluoromethyl)-3,4-dihydro-2H-xanthene-1,9-dione

> <PUBCHEM_IUPAC_NAME_MARKUP>
6-(trifluoromethyl)-3,4-dihydro-2<I>H</I>-xanthene-1,9-dione

> <PUBCHEM_IUPAC_NAME>
6-(trifluoromethyl)-3,4-dihydro-2H-xanthene-1,9-dione

> <PUBCHEM_IUPAC_SYSTEMATIC_NAME>
6-(trifluoromethyl)-3,4-dihydro-2H-xanthene-1,9-dione

> <PUBCHEM_IUPAC_TRADITIONAL_NAME>
6-(trifluoromethyl)-3,4-dihydro-2H-xanthene-1,9-quinone

> <PUBCHEM_IUPAC_INCHI>
InChI=1S/C14H9F3O3/c15-14(16,17)7-4-5-8-11(6-7)20-10-3-1-2-9(18)12(10)13(8)19/h4-6H,1-3H2

> <PUBCHEM_IUPAC_INCHIKEY>
YCBJUIHLMYFQSQ-UHFFFAOYSA-N

> <PUBCHEM_XLOGP3_AA>
2.7

> <PUBCHEM_EXACT_MASS>
282.05037863

> <PUBCHEM_MOLECULAR_FORMULA>
C14H9F3O3

> <PUBCHEM_MOLECULAR_WEIGHT>
282.21

> <PUBCHEM_SMILES>
C1CC2=C(C(=O)C1)C(=O)C3=C(O2)C=C(C=C3)C(F)(F)F

> <PUBCHEM_OPENEYE_CAN_SMILES>
C1CC2=C(C(=O)C1)C(=O)C3=C(O2)C=C(C=C3)C(F)(F)F

> <PUBCHEM_OPENEYE_ISO_SMILES>
C1CC2=C(C(=O)C1)C(=O)C3=C(O2)C=C(C=C3)C(F)(F)F

> <PUBCHEM_CACTVS_TPSA>
43.4

> <PUBCHEM_MONOISOTOPIC_WEIGHT>
282.05037863

> <PUBCHEM_TOTAL_CHARGE>
0

> <PUBCHEM_HEAVY_ATOM_COUNT>
20

> <PUBCHEM_ATOM_DEF_STEREO_COUNT>
0

> <PUBCHEM_ATOM_UDEF_STEREO_COUNT>
0

> <PUBCHEM_BOND_DEF_STEREO_COUNT>
0

> <PUBCHEM_BOND_UDEF_STEREO_COUNT>
0

> <PUBCHEM_ISOTOPIC_ATOM_COUNT>
0

> <PUBCHEM_COMPONENT_COUNT>
1

> <PUBCHEM_CACTVS_TAUTO_COUNT>
-1

> <PUBCHEM_COORDINATE_TYPE>
1
5
255

> <PUBCHEM_BONDANNOTATIONS>
11  14  8
13  14  8
13  15  8
13  17  8
15  16  8
16  18  8
17  19  8
18  19  8
4  15  8
4  9  8
9  11  8

$$$$
