44328912
  -OEChem-03202507342D

 77 84  0     0  0  0  0  0  0999 V2000
   16.5922   -1.7552    0.0000 O   0  0  0  0  0  0  0  0  0  0  0  0
    9.9308    0.5484    0.0000 O   0  0  0  0  0  0  0  0  0  0  0  0
    6.8294   -0.4631    0.0000 O   0  0  0  0  0  0  0  0  0  0  0  0
    2.9142   -0.8678    0.0000 O   0  0  0  0  0  0  0  0  0  0  0  0
    2.2125    0.7157    0.0000 O   0  0  0  0  0  0  0  0  0  0  0  0
   12.8663    1.1671    0.0000 N   0  0  0  0  0  0  0  0  0  0  0  0
   12.8663   -1.1671    0.0000 N   0  0  0  0  0  0  0  0  0  0  0  0
   16.8652    0.0000    0.0000 N   0  0  0  0  0  0  0  0  0  0  0  0
    9.5736    2.2433    0.0000 N   0  0  0  0  0  0  0  0  0  0  0  0
    6.9862    2.2090    0.0000 N   0  0  0  0  0  0  0  0  0  0  0  0
    4.1444    1.5095    0.0000 N   0  0  0  0  0  0  0  0  0  0  0  0
   13.6033    0.5000    0.0000 C   0  0  0  0  0  0  0  0  0  0  0  0
   14.4693    1.0000    0.0000 C   0  0  0  0  0  0  0  0  0  0  0  0
   15.3353    0.5000    0.0000 C   0  0  0  0  0  0  0  0  0  0  0  0
   13.6033   -0.5000    0.0000 C   0  0  0  0  0  0  0  0  0  0  0  0
   14.4693   -1.0000    0.0000 C   0  0  0  0  0  0  0  0  0  0  0  0
   15.3353   -0.5000    0.0000 C   0  0  0  0  0  0  0  0  0  0  0  0
   14.2601    1.9718    0.0000 C   0  0  0  0  0  0  0  0  0  0  0  0
   13.2714    2.0749    0.0000 C   0  0  0  0  0  0  0  0  0  0  0  0
   16.2816    0.8047    0.0000 C   0  0  0  0  0  0  0  0  0  0  0  0
   14.2601   -1.9718    0.0000 C   0  0  0  0  0  0  0  0  0  0  0  0
   11.8878    0.9609    0.0000 C   0  0  0  0  0  0  0  0  0  0  0  0
   13.2714   -2.0749    0.0000 C   0  0  0  0  0  0  0  0  0  0  0  0
   16.2816   -0.8047    0.0000 C   0  0  0  0  0  0  0  0  0  0  0  0
   14.8809    2.8006    0.0000 C   0  0  0  0  0  0  0  0  0  0  0  0
   12.8349    3.0138    0.0000 C   0  0  0  0  0  0  0  0  0  0  0  0
   11.2199    1.7052    0.0000 C   0  0  0  0  0  0  0  0  0  0  0  0
   14.8809   -2.8006    0.0000 C   0  0  0  0  0  0  0  0  0  0  0  0
   12.8349   -3.0138    0.0000 C   0  0  0  0  0  0  0  0  0  0  0  0
   14.4662    3.7494    0.0000 C   0  0  0  0  0  0  0  0  0  0  0  0
   13.4363    3.8567    0.0000 C   0  0  0  0  0  0  0  0  0  0  0  0
   14.4662   -3.7494    0.0000 C   0  0  0  0  0  0  0  0  0  0  0  0
   13.4363   -3.8567    0.0000 C   0  0  0  0  0  0  0  0  0  0  0  0
   10.2414    1.4990    0.0000 C   0  0  0  0  0  0  0  0  0  0  0  0
    8.5951    2.0370    0.0000 C   0  0  0  0  0  0  0  0  0  0  0  0
    8.1868    1.1242    0.0000 C   0  0  0  0  0  0  0  0  0  0  0  0
    7.8531    2.7074    0.0000 C   0  0  0  0  0  0  0  0  0  0  0  0
    7.1924    1.2304    0.0000 C   0  0  0  0  0  0  0  0  0  0  0  0
    6.5220    0.4885    0.0000 C   0  0  0  0  0  0  0  0  0  0  0  0
    6.0733    2.6173    0.0000 C   0  0  0  0  0  0  0  0  0  0  0  0
    5.5442    0.6981    0.0000 C   0  0  0  0  0  0  0  0  0  0  0  0
    5.1390    1.6123    0.0000 C   0  0  0  0  0  0  0  0  0  0  0  0
    4.7999    0.0302    0.0000 C   0  0  0  0  0  0  0  0  0  0  0  0
    3.9348    0.5317    0.0000 C   0  0  0  0  0  0  0  0  0  0  0  0
    3.4765    2.2538    0.0000 C   0  0  0  0  0  0  0  0  0  0  0  0
    3.0205    0.1266    0.0000 C   0  0  0  0  0  0  0  0  0  0  0  0
    2.0000   -1.2729    0.0000 C   0  0  0  0  0  0  0  0  0  0  0  0
   16.8189    1.1140    0.0000 H   0  0  0  0  0  0  0  0  0  0  0  0
   16.0305    1.3716    0.0000 H   0  0  0  0  0  0  0  0  0  0  0  0
   11.3614    0.6332    0.0000 H   0  0  0  0  0  0  0  0  0  0  0  0
   12.1190    0.3856    0.0000 H   0  0  0  0  0  0  0  0  0  0  0  0
   12.2596   -1.0392    0.0000 H   0  0  0  0  0  0  0  0  0  0  0  0
   17.4852    0.0000    0.0000 H   0  0  0  0  0  0  0  0  0  0  0  0
   15.4967    2.7292    0.0000 H   0  0  0  0  0  0  0  0  0  0  0  0
   12.2175    3.0710    0.0000 H   0  0  0  0  0  0  0  0  0  0  0  0
   11.7463    2.0328    0.0000 H   0  0  0  0  0  0  0  0  0  0  0  0
   10.9887    2.2804    0.0000 H   0  0  0  0  0  0  0  0  0  0  0  0
   15.4967   -2.7292    0.0000 H   0  0  0  0  0  0  0  0  0  0  0  0
   12.2175   -3.0710    0.0000 H   0  0  0  0  0  0  0  0  0  0  0  0
   14.8321    4.2499    0.0000 H   0  0  0  0  0  0  0  0  0  0  0  0
   13.1815    4.4219    0.0000 H   0  0  0  0  0  0  0  0  0  0  0  0
   14.8321   -4.2499    0.0000 H   0  0  0  0  0  0  0  0  0  0  0  0
   13.1815   -4.4219    0.0000 H   0  0  0  0  0  0  0  0  0  0  0  0
    9.7662    2.8326    0.0000 H   0  0  0  0  0  0  0  0  0  0  0  0
    8.4958    0.5867    0.0000 H   0  0  0  0  0  0  0  0  0  0  0  0
    7.9190    3.3239    0.0000 H   0  0  0  0  0  0  0  0  0  0  0  0
    6.3265    3.1832    0.0000 H   0  0  0  0  0  0  0  0  0  0  0  0
    5.5074    2.8704    0.0000 H   0  0  0  0  0  0  0  0  0  0  0  0
    5.8202    2.0513    0.0000 H   0  0  0  0  0  0  0  0  0  0  0  0
    5.4500    2.1487    0.0000 H   0  0  0  0  0  0  0  0  0  0  0  0
    4.8636   -0.5865    0.0000 H   0  0  0  0  0  0  0  0  0  0  0  0
    3.9380    2.6679    0.0000 H   0  0  0  0  0  0  0  0  0  0  0  0
    3.0624    2.7153    0.0000 H   0  0  0  0  0  0  0  0  0  0  0  0
    3.0150    1.8397    0.0000 H   0  0  0  0  0  0  0  0  0  0  0  0
    1.7488   -0.7061    0.0000 H   0  0  0  0  0  0  0  0  0  0  0  0
    1.4332   -1.5241    0.0000 H   0  0  0  0  0  0  0  0  0  0  0  0
    2.2512   -1.8398    0.0000 H   0  0  0  0  0  0  0  0  0  0  0  0
  1 24  2  0  0  0  0
  2 34  2  0  0  0  0
  3 39  2  0  0  0  0
  4 46  1  0  0  0  0
  4 47  1  0  0  0  0
  5 46  2  0  0  0  0
  6 12  1  0  0  0  0
  6 19  1  0  0  0  0
  6 22  1  0  0  0  0
  7 15  1  0  0  0  0
  7 23  1  0  0  0  0
  7 52  1  0  0  0  0
  8 20  1  0  0  0  0
  8 24  1  0  0  0  0
  8 53  1  0  0  0  0
  9 34  1  0  0  0  0
  9 35  1  0  0  0  0
  9 64  1  0  0  0  0
 10 37  1  0  0  0  0
 10 38  1  0  0  0  0
 10 40  1  0  0  0  0
 11 42  1  0  0  0  0
 11 44  1  0  0  0  0
 11 45  1  0  0  0  0
 12 13  1  0  0  0  0
 12 15  2  0  0  0  0
 13 14  2  0  0  0  0
 13 18  1  0  0  0  0
 14 17  1  0  0  0  0
 14 20  1  0  0  0  0
 15 16  1  0  0  0  0
 16 17  2  0  0  0  0
 16 21  1  0  0  0  0
 17 24  1  0  0  0  0
 18 19  1  0  0  0  0
 18 25  2  0  0  0  0
 19 26  2  0  0  0  0
 20 48  1  0  0  0  0
 20 49  1  0  0  0  0
 21 23  1  0  0  0  0
 21 28  2  0  0  0  0
 22 27  1  0  0  0  0
 22 50  1  0  0  0  0
 22 51  1  0  0  0  0
 23 29  2  0  0  0  0
 25 30  1  0  0  0  0
 25 54  1  0  0  0  0
 26 31  1  0  0  0  0
 26 55  1  0  0  0  0
 27 34  1  0  0  0  0
 27 56  1  0  0  0  0
 27 57  1  0  0  0  0
 28 32  1  0  0  0  0
 28 58  1  0  0  0  0
 29 33  1  0  0  0  0
 29 59  1  0  0  0  0
 30 31  2  0  0  0  0
 30 60  1  0  0  0  0
 31 61  1  0  0  0  0
 32 33  2  0  0  0  0
 32 62  1  0  0  0  0
 33 63  1  0  0  0  0
 35 36  1  0  0  0  0
 35 37  2  0  0  0  0
 36 38  2  0  0  0  0
 36 65  1  0  0  0  0
 37 66  1  0  0  0  0
 38 39  1  0  0  0  0
 39 41  1  0  0  0  0
 40 67  1  0  0  0  0
 40 68  1  0  0  0  0
 40 69  1  0  0  0  0
 41 42  2  0  0  0  0
 41 43  1  0  0  0  0
 42 70  1  0  0  0  0
 43 44  2  0  0  0  0
 43 71  1  0  0  0  0
 44 46  1  0  0  0  0
 45 72  1  0  0  0  0
 45 73  1  0  0  0  0
 45 74  1  0  0  0  0
 47 75  1  0  0  0  0
 47 76  1  0  0  0  0
 47 77  1  0  0  0  0
M  END
> <PUBCHEM_COMPOUND_CID>
44328912

> <PUBCHEM_COMPOUND_CANONICALIZED>
1

> <PUBCHEM_CACTVS_COMPLEXITY>
1260

> <PUBCHEM_CACTVS_HBOND_ACCEPTOR>
5

> <PUBCHEM_CACTVS_HBOND_DONOR>
3

> <PUBCHEM_CACTVS_ROTATABLE_BOND>
8

> <PUBCHEM_CACTVS_SUBSKEYS>
AAADceB/uAAAAAAAAAAAAAAAAAAAAWLFixYwYMAAAAAAAFgB/gAAHgAQAAAADAzBngY+yPPNlACoA7X3XASCgCQ3EiAI2aG4fNgKZvrA9fmVNYhk1gHY6cec3+K+yAACQAASACCQAASAACQAQAAAAAAAAA==

> <PUBCHEM_IUPAC_OPENEYE_NAME>
methyl 1-methyl-4-[1-methyl-4-[3-(14-oxo-3,13,23-triazahexacyclo[14.7.0.02,10.04,9.011,15.017,22]tricosa-1,4,6,8,10,15,17,19,21-nonaen-3-yl)propanoylamino]pyrrole-2-carbonyl]pyrrole-2-carboxylate

> <PUBCHEM_IUPAC_CAS_NAME>
1-methyl-4-[[1-methyl-4-[[1-oxo-3-(14-oxo-3,13,23-triazahexacyclo[14.7.0.02,10.04,9.011,15.017,22]tricosa-1,4,6,8,10,15,17,19,21-nonaen-3-yl)propyl]amino]-2-pyrrolyl]-oxomethyl]-2-pyrrolecarboxylic acid methyl ester

> <PUBCHEM_IUPAC_NAME_MARKUP>
methyl 1-methyl-4-[1-methyl-4-[3-(14-oxo-3,13,23-triazahexacyclo[14.7.0.0<SUP>2,10</SUP>.0<SUP>4,9</SUP>.0<SUP>11,15</SUP>.0<SUP>17,22</SUP>]tricosa-1,4,6,8,10,15,17,19,21-nonaen-3-yl)propanoylamino]pyrrole-2-carbonyl]pyrrole-2-carboxylate

> <PUBCHEM_IUPAC_NAME>
methyl 1-methyl-4-[1-methyl-4-[3-(14-oxo-3,13,23-triazahexacyclo[14.7.0.02,10.04,9.011,15.017,22]tricosa-1,4,6,8,10,15,17,19,21-nonaen-3-yl)propanoylamino]pyrrole-2-carbonyl]pyrrole-2-carboxylate

> <PUBCHEM_IUPAC_SYSTEMATIC_NAME>
methyl 1-methyl-4-[1-methyl-4-[3-(14-oxidanylidene-3,13,23-triazahexacyclo[14.7.0.02,10.04,9.011,15.017,22]tricosa-1,4,6,8,10,15,17,19,21-nonaen-3-yl)propanoylamino]pyrrol-2-yl]carbonyl-pyrrole-2-carboxylate

> <PUBCHEM_IUPAC_TRADITIONAL_NAME>
4-[4-[3-(14-keto-3,13,23-triazahexacyclo[14.7.0.02,10.04,9.011,15.017,22]tricosa-1,4,6,8,10,15,17,19,21-nonaen-3-yl)propanoylamino]-1-methyl-pyrrole-2-carbonyl]-1-methyl-pyrrole-2-carboxylic acid methyl ester

> <PUBCHEM_IUPAC_INCHI>
InChI=1S/C36H30N6O5/c1-40-17-19(14-27(40)36(46)47-3)34(44)26-15-20(18-41(26)2)38-28(43)12-13-42-25-11-7-5-9-22(25)29-23-16-37-35(45)31(23)30-21-8-4-6-10-24(21)39-32(30)33(29)42/h4-11,14-15,17-18,39H,12-13,16H2,1-3H3,(H,37,45)(H,38,43)

> <PUBCHEM_IUPAC_INCHIKEY>
CCRCRSXDKXZDGK-UHFFFAOYSA-N

> <PUBCHEM_XLOGP3_AA>
3.7

> <PUBCHEM_EXACT_MASS>
626.22776808

> <PUBCHEM_MOLECULAR_FORMULA>
C36H30N6O5

> <PUBCHEM_MOLECULAR_WEIGHT>
626.7

> <PUBCHEM_SMILES>
CN1C=C(C=C1C(=O)OC)C(=O)C2=CC(=CN2C)NC(=O)CCN3C4=CC=CC=C4C5=C6CNC(=O)C6=C7C8=CC=CC=C8NC7=C53

> <PUBCHEM_OPENEYE_CAN_SMILES>
CN1C=C(C=C1C(=O)OC)C(=O)C2=CC(=CN2C)NC(=O)CCN3C4=CC=CC=C4C5=C6CNC(=O)C6=C7C8=CC=CC=C8NC7=C53

> <PUBCHEM_OPENEYE_ISO_SMILES>
CN1C=C(C=C1C(=O)OC)C(=O)C2=CC(=CN2C)NC(=O)CCN3C4=CC=CC=C4C5=C6CNC(=O)C6=C7C8=CC=CC=C8NC7=C53

> <PUBCHEM_CACTVS_TPSA>
132

> <PUBCHEM_MONOISOTOPIC_WEIGHT>
626.22776808

> <PUBCHEM_TOTAL_CHARGE>
0

> <PUBCHEM_HEAVY_ATOM_COUNT>
47

> <PUBCHEM_ATOM_DEF_STEREO_COUNT>
0

> <PUBCHEM_ATOM_UDEF_STEREO_COUNT>
0

> <PUBCHEM_BOND_DEF_STEREO_COUNT>
0

> <PUBCHEM_BOND_UDEF_STEREO_COUNT>
0

> <PUBCHEM_ISOTOPIC_ATOM_COUNT>
0

> <PUBCHEM_COMPONENT_COUNT>
1

> <PUBCHEM_CACTVS_TAUTO_COUNT>
-1

> <PUBCHEM_COORDINATE_TYPE>
1
5
255

> <PUBCHEM_BONDANNOTATIONS>
10  37  8
10  38  8
11  42  8
11  44  8
12  13  8
12  15  8
13  14  8
13  18  8
14  17  8
15  16  8
16  17  8
16  21  8
18  19  8
18  25  8
19  26  8
21  23  8
21  28  8
23  29  8
25  30  8
26  31  8
28  32  8
29  33  8
30  31  8
32  33  8
35  36  8
35  37  8
36  38  8
41  42  8
41  43  8
43  44  8
6  12  8
6  19  8
7  15  8
7  23  8

$$$$
