14802483
  -OEChem-03202505432D

 46 48  0     0  0  0  0  0  0999 V2000
    3.7320   -1.9827    0.0000 S   0  0  0  0  0  0  0  0  0  0  0  0
    2.7320   -1.9827    0.0000 O   0  0  0  0  0  0  0  0  0  0  0  0
    4.7320   -1.9827    0.0000 O   0  0  0  0  0  0  0  0  0  0  0  0
    2.0000    4.0173    0.0000 O   0  0  0  0  0  0  0  0  0  0  0  0
    3.7320    4.0173    0.0000 O   0  0  0  0  0  0  0  0  0  0  0  0
    3.7320   -0.9827    0.0000 N   0  0  0  0  0  0  0  0  0  0  0  0
    3.7320    1.0173    0.0000 N   0  0  0  0  0  0  0  0  0  0  0  0
    6.3981   -4.5035    0.0000 N   0  0  0  0  0  0  0  0  0  0  0  0
    4.5981   -0.4827    0.0000 C   0  0  0  0  0  0  0  0  0  0  0  0
    2.8660   -0.4827    0.0000 C   0  0  0  0  0  0  0  0  0  0  0  0
    4.5981    0.5173    0.0000 C   0  0  0  0  0  0  0  0  0  0  0  0
    2.8660    0.5173    0.0000 C   0  0  0  0  0  0  0  0  0  0  0  0
    3.7320    2.0173    0.0000 C   0  0  0  0  0  0  0  0  0  0  0  0
    3.7320   -2.9827    0.0000 C   0  0  0  0  0  0  0  0  0  0  0  0
    2.8660    2.5173    0.0000 C   0  0  0  0  0  0  0  0  0  0  0  0
    4.5981   -3.4827    0.0000 C   0  0  0  0  0  0  0  0  0  0  0  0
    2.8660   -3.4827    0.0000 C   0  0  0  0  0  0  0  0  0  0  0  0
    4.5981   -4.4827    0.0000 C   0  0  0  0  0  0  0  0  0  0  0  0
    2.8660    3.5173    0.0000 C   0  0  0  0  0  0  0  0  0  0  0  0
    2.8660   -4.4827    0.0000 C   0  0  0  0  0  0  0  0  0  0  0  0
    5.4920   -2.9480    0.0000 C   0  0  0  0  0  0  0  0  0  0  0  0
    3.7320   -4.9827    0.0000 C   0  0  0  0  0  0  0  0  0  0  0  0
    5.4920   -5.0173    0.0000 C   0  0  0  0  0  0  0  0  0  0  0  0
    6.3981   -3.4618    0.0000 C   0  0  0  0  0  0  0  0  0  0  0  0
    2.0000    5.0173    0.0000 C   0  0  0  0  0  0  0  0  0  0  0  0
    4.8101   -1.0653    0.0000 H   0  0  0  0  0  0  0  0  0  0  0  0
    5.2087   -0.3750    0.0000 H   0  0  0  0  0  0  0  0  0  0  0  0
    2.2554   -0.3750    0.0000 H   0  0  0  0  0  0  0  0  0  0  0  0
    2.6540   -1.0653    0.0000 H   0  0  0  0  0  0  0  0  0  0  0  0
    5.2087    0.4097    0.0000 H   0  0  0  0  0  0  0  0  0  0  0  0
    4.8101    1.0999    0.0000 H   0  0  0  0  0  0  0  0  0  0  0  0
    2.6540    1.0999    0.0000 H   0  0  0  0  0  0  0  0  0  0  0  0
    2.2554    0.4097    0.0000 H   0  0  0  0  0  0  0  0  0  0  0  0
    4.3426    1.9097    0.0000 H   0  0  0  0  0  0  0  0  0  0  0  0
    3.9441    2.5999    0.0000 H   0  0  0  0  0  0  0  0  0  0  0  0
    2.2554    2.6250    0.0000 H   0  0  0  0  0  0  0  0  0  0  0  0
    2.6540    1.9347    0.0000 H   0  0  0  0  0  0  0  0  0  0  0  0
    2.3291   -3.1727    0.0000 H   0  0  0  0  0  0  0  0  0  0  0  0
    2.3291   -4.7927    0.0000 H   0  0  0  0  0  0  0  0  0  0  0  0
    5.4848   -2.3280    0.0000 H   0  0  0  0  0  0  0  0  0  0  0  0
    3.7320   -5.6027    0.0000 H   0  0  0  0  0  0  0  0  0  0  0  0
    5.4848   -5.6373    0.0000 H   0  0  0  0  0  0  0  0  0  0  0  0
    6.9338   -3.1498    0.0000 H   0  0  0  0  0  0  0  0  0  0  0  0
    2.6200    5.0173    0.0000 H   0  0  0  0  0  0  0  0  0  0  0  0
    2.0000    5.6373    0.0000 H   0  0  0  0  0  0  0  0  0  0  0  0
    1.3800    5.0173    0.0000 H   0  0  0  0  0  0  0  0  0  0  0  0
  1  2  2  0  0  0  0
  1  3  2  0  0  0  0
  1  6  1  0  0  0  0
  1 14  1  0  0  0  0
  4 19  1  0  0  0  0
  4 25  1  0  0  0  0
  5 19  2  0  0  0  0
  6  9  1  0  0  0  0
  6 10  1  0  0  0  0
  7 11  1  0  0  0  0
  7 12  1  0  0  0  0
  7 13  1  0  0  0  0
  8 23  2  0  0  0  0
  8 24  1  0  0  0  0
  9 11  1  0  0  0  0
  9 26  1  0  0  0  0
  9 27  1  0  0  0  0
 10 12  1  0  0  0  0
 10 28  1  0  0  0  0
 10 29  1  0  0  0  0
 11 30  1  0  0  0  0
 11 31  1  0  0  0  0
 12 32  1  0  0  0  0
 12 33  1  0  0  0  0
 13 15  1  0  0  0  0
 13 34  1  0  0  0  0
 13 35  1  0  0  0  0
 14 16  1  0  0  0  0
 14 17  2  0  0  0  0
 15 19  1  0  0  0  0
 15 36  1  0  0  0  0
 15 37  1  0  0  0  0
 16 18  2  0  0  0  0
 16 21  1  0  0  0  0
 17 20  1  0  0  0  0
 17 38  1  0  0  0  0
 18 22  1  0  0  0  0
 18 23  1  0  0  0  0
 20 22  2  0  0  0  0
 20 39  1  0  0  0  0
 21 24  2  0  0  0  0
 21 40  1  0  0  0  0
 22 41  1  0  0  0  0
 23 42  1  0  0  0  0
 24 43  1  0  0  0  0
 25 44  1  0  0  0  0
 25 45  1  0  0  0  0
 25 46  1  0  0  0  0
M  END
> <PUBCHEM_COMPOUND_CID>
14802483

> <PUBCHEM_COMPOUND_CANONICALIZED>
1

> <PUBCHEM_CACTVS_COMPLEXITY>
555

> <PUBCHEM_CACTVS_HBOND_ACCEPTOR>
7

> <PUBCHEM_CACTVS_HBOND_DONOR>
0

> <PUBCHEM_CACTVS_ROTATABLE_BOND>
6

> <PUBCHEM_CACTVS_SUBSKEYS>
AAADceB7OABAAAAAAAAAAAAAAAAAAAAAAAA8WIAAAAAAAACx8AAAHgQAQAAADADB2gY+idMIFAKoAjD3THDCgDAxAiAI2Dk4ZJgIYOrAkZGUIAhigADIyAcQgIAOgAAAgAAUAAAAAAEAACgAAAAAAAAAAA==

> <PUBCHEM_IUPAC_OPENEYE_NAME>
methyl 3-[4-(5-isoquinolylsulfonyl)piperazin-1-yl]propanoate

> <PUBCHEM_IUPAC_CAS_NAME>
3-[4-(5-isoquinolinylsulfonyl)-1-piperazinyl]propanoic acid methyl ester

> <PUBCHEM_IUPAC_NAME_MARKUP>
methyl 3-(4-isoquinolin-5-ylsulfonylpiperazin-1-yl)propanoate

> <PUBCHEM_IUPAC_NAME>
methyl 3-(4-isoquinolin-5-ylsulfonylpiperazin-1-yl)propanoate

> <PUBCHEM_IUPAC_SYSTEMATIC_NAME>
methyl 3-(4-isoquinolin-5-ylsulfonylpiperazin-1-yl)propanoate

> <PUBCHEM_IUPAC_TRADITIONAL_NAME>
3-[4-(5-isoquinolylsulfonyl)piperazino]propionic acid methyl ester

> <PUBCHEM_IUPAC_INCHI>
InChI=1S/C17H21N3O4S/c1-24-17(21)6-8-19-9-11-20(12-10-19)25(22,23)16-4-2-3-14-13-18-7-5-15(14)16/h2-5,7,13H,6,8-12H2,1H3

> <PUBCHEM_IUPAC_INCHIKEY>
FAXAOIMDHKSUCO-UHFFFAOYSA-N

> <PUBCHEM_XLOGP3_AA>
0.9

> <PUBCHEM_EXACT_MASS>
363.12527733

> <PUBCHEM_MOLECULAR_FORMULA>
C17H21N3O4S

> <PUBCHEM_MOLECULAR_WEIGHT>
363.4

> <PUBCHEM_SMILES>
COC(=O)CCN1CCN(CC1)S(=O)(=O)C2=CC=CC3=C2C=CN=C3

> <PUBCHEM_OPENEYE_CAN_SMILES>
COC(=O)CCN1CCN(CC1)S(=O)(=O)C2=CC=CC3=C2C=CN=C3

> <PUBCHEM_OPENEYE_ISO_SMILES>
COC(=O)CCN1CCN(CC1)S(=O)(=O)C2=CC=CC3=C2C=CN=C3

> <PUBCHEM_CACTVS_TPSA>
88.2

> <PUBCHEM_MONOISOTOPIC_WEIGHT>
363.12527733

> <PUBCHEM_TOTAL_CHARGE>
0

> <PUBCHEM_HEAVY_ATOM_COUNT>
25

> <PUBCHEM_ATOM_DEF_STEREO_COUNT>
0

> <PUBCHEM_ATOM_UDEF_STEREO_COUNT>
0

> <PUBCHEM_BOND_DEF_STEREO_COUNT>
0

> <PUBCHEM_BOND_UDEF_STEREO_COUNT>
0

> <PUBCHEM_ISOTOPIC_ATOM_COUNT>
0

> <PUBCHEM_COMPONENT_COUNT>
1

> <PUBCHEM_CACTVS_TAUTO_COUNT>
-1

> <PUBCHEM_COORDINATE_TYPE>
1
5
255

> <PUBCHEM_BONDANNOTATIONS>
14  16  8
14  17  8
16  18  8
16  21  8
17  20  8
18  22  8
18  23  8
20  22  8
21  24  8
8  23  8
8  24  8

$$$$
