24905159
  -OEChem-03192523462D

 42 44  0     0  0  0  0  0  0999 V2000
    7.5673    2.8089    0.0000 S   0  0  0  0  0  0  0  0  0  0  0  0
    8.5178    2.4982    0.0000 O   0  0  0  0  0  0  0  0  0  0  0  0
    6.6168    3.1195    0.0000 O   0  0  0  0  0  0  0  0  0  0  0  0
    4.6783   -2.0646    0.0000 N   0  0  0  0  0  0  0  0  0  0  0  0
    5.2619   -1.2598    0.0000 N   0  0  0  0  0  0  0  0  0  0  0  0
    2.8660   -2.2598    0.0000 N   0  0  0  0  0  0  0  0  0  0  0  0
    7.2566    1.8584    0.0000 N   0  0  0  0  0  0  0  0  0  0  0  0
    2.0000   -0.7598    0.0000 N   0  0  0  0  0  0  0  0  0  0  0  0
    2.8660    0.7402    0.0000 N   0  0  0  0  0  0  0  0  0  0  0  0
    4.9889   -3.0151    0.0000 C   0  0  0  0  0  0  0  0  0  0  0  0
    3.7320   -0.7598    0.0000 C   0  0  0  0  0  0  0  0  0  0  0  0
    3.7320   -1.7598    0.0000 C   0  0  0  0  0  0  0  0  0  0  0  0
    4.6783   -0.4551    0.0000 C   0  0  0  0  0  0  0  0  0  0  0  0
    4.9889    0.4954    0.0000 C   0  0  0  0  0  0  0  0  0  0  0  0
    5.9674   -3.2213    0.0000 C   0  0  0  0  0  0  0  0  0  0  0  0
    4.3211   -3.7594    0.0000 C   0  0  0  0  0  0  0  0  0  0  0  0
    2.8660   -0.2598    0.0000 C   0  0  0  0  0  0  0  0  0  0  0  0
    5.9674    0.7016    0.0000 C   0  0  0  0  0  0  0  0  0  0  0  0
    6.2781    1.6521    0.0000 C   0  0  0  0  0  0  0  0  0  0  0  0
    4.3211    1.2397    0.0000 C   0  0  0  0  0  0  0  0  0  0  0  0
    5.6103    2.3965    0.0000 C   0  0  0  0  0  0  0  0  0  0  0  0
    4.6318    2.1902    0.0000 C   0  0  0  0  0  0  0  0  0  0  0  0
    2.0000   -1.7598    0.0000 C   0  0  0  0  0  0  0  0  0  0  0  0
    7.8779    3.7594    0.0000 C   0  0  0  0  0  0  0  0  0  0  0  0
    5.1815   -3.6044    0.0000 H   0  0  0  0  0  0  0  0  0  0  0  0
    5.8396   -3.8280    0.0000 H   0  0  0  0  0  0  0  0  0  0  0  0
    6.5741   -3.3492    0.0000 H   0  0  0  0  0  0  0  0  0  0  0  0
    6.0953   -2.6146    0.0000 H   0  0  0  0  0  0  0  0  0  0  0  0
    3.8596   -3.3453    0.0000 H   0  0  0  0  0  0  0  0  0  0  0  0
    3.9070   -4.2209    0.0000 H   0  0  0  0  0  0  0  0  0  0  0  0
    4.7826   -4.1735    0.0000 H   0  0  0  0  0  0  0  0  0  0  0  0
    6.3815    0.2402    0.0000 H   0  0  0  0  0  0  0  0  0  0  0  0
    3.7144    1.1118    0.0000 H   0  0  0  0  0  0  0  0  0  0  0  0
    5.8029    2.9858    0.0000 H   0  0  0  0  0  0  0  0  0  0  0  0
    4.2177    2.6517    0.0000 H   0  0  0  0  0  0  0  0  0  0  0  0
    7.6707    1.3969    0.0000 H   0  0  0  0  0  0  0  0  0  0  0  0
    1.4631   -2.0699    0.0000 H   0  0  0  0  0  0  0  0  0  0  0  0
    2.3291    1.0502    0.0000 H   0  0  0  0  0  0  0  0  0  0  0  0
    3.4030    1.0502    0.0000 H   0  0  0  0  0  0  0  0  0  0  0  0
    8.4672    3.5668    0.0000 H   0  0  0  0  0  0  0  0  0  0  0  0
    8.0705    4.3487    0.0000 H   0  0  0  0  0  0  0  0  0  0  0  0
    7.2886    3.9520    0.0000 H   0  0  0  0  0  0  0  0  0  0  0  0
  1  2  2  0  0  0  0
  1  3  2  0  0  0  0
  1  7  1  0  0  0  0
  1 24  1  0  0  0  0
  4  5  1  0  0  0  0
  4 10  1  0  0  0  0
  4 12  1  0  0  0  0
  5 13  2  0  0  0  0
  6 12  2  0  0  0  0
  6 23  1  0  0  0  0
  7 19  1  0  0  0  0
  7 36  1  0  0  0  0
  8 17  1  0  0  0  0
  8 23  2  0  0  0  0
  9 17  1  0  0  0  0
  9 38  1  0  0  0  0
  9 39  1  0  0  0  0
 10 15  1  0  0  0  0
 10 16  1  0  0  0  0
 10 25  1  0  0  0  0
 11 12  1  0  0  0  0
 11 13  1  0  0  0  0
 11 17  2  0  0  0  0
 13 14  1  0  0  0  0
 14 18  2  0  0  0  0
 14 20  1  0  0  0  0
 15 26  1  0  0  0  0
 15 27  1  0  0  0  0
 15 28  1  0  0  0  0
 16 29  1  0  0  0  0
 16 30  1  0  0  0  0
 16 31  1  0  0  0  0
 18 19  1  0  0  0  0
 18 32  1  0  0  0  0
 19 21  2  0  0  0  0
 20 22  2  0  0  0  0
 20 33  1  0  0  0  0
 21 22  1  0  0  0  0
 21 34  1  0  0  0  0
 22 35  1  0  0  0  0
 23 37  1  0  0  0  0
 24 40  1  0  0  0  0
 24 41  1  0  0  0  0
 24 42  1  0  0  0  0
M  END
> <PUBCHEM_COMPOUND_CID>
24905159

> <PUBCHEM_COMPOUND_CANONICALIZED>
1

> <PUBCHEM_CACTVS_COMPLEXITY>
537

> <PUBCHEM_CACTVS_HBOND_ACCEPTOR>
7

> <PUBCHEM_CACTVS_HBOND_DONOR>
2

> <PUBCHEM_CACTVS_ROTATABLE_BOND>
4

> <PUBCHEM_CACTVS_SUBSKEYS>
AAADceBzsABAAAAAAAAAAAAAAAAAAWAAAAA8QAAAAAAAAFgB/AAAHAQYQAAADCjBHwS38N5IEAKiAyZjZHCShCsxgqAd2CAoZJiIKKLA2dGEpAhomALIyCcQgMAOAAAAQAAAAAAAAACAAAAAAAAAAAAAAA==

> <PUBCHEM_IUPAC_OPENEYE_NAME>
N-[3-(4-amino-1-isopropyl-pyrazolo[3,4-d]pyrimidin-3-yl)phenyl]methanesulfonamide

> <PUBCHEM_IUPAC_CAS_NAME>
N-[3-(4-amino-1-propan-2-yl-3-pyrazolo[3,4-d]pyrimidinyl)phenyl]methanesulfonamide

> <PUBCHEM_IUPAC_NAME_MARKUP>
<I>N</I>-[3-(4-amino-1-propan-2-ylpyrazolo[3,4-d]pyrimidin-3-yl)phenyl]methanesulfonamide

> <PUBCHEM_IUPAC_NAME>
N-[3-(4-amino-1-propan-2-ylpyrazolo[3,4-d]pyrimidin-3-yl)phenyl]methanesulfonamide

> <PUBCHEM_IUPAC_SYSTEMATIC_NAME>
N-[3-(4-azanyl-1-propan-2-yl-pyrazolo[3,4-d]pyrimidin-3-yl)phenyl]methanesulfonamide

> <PUBCHEM_IUPAC_TRADITIONAL_NAME>
N-[3-(4-amino-1-isopropyl-pyrazolo[3,4-d]pyrimidin-3-yl)phenyl]methanesulfonamide

> <PUBCHEM_IUPAC_INCHI>
InChI=1S/C15H18N6O2S/c1-9(2)21-15-12(14(16)17-8-18-15)13(19-21)10-5-4-6-11(7-10)20-24(3,22)23/h4-9,20H,1-3H3,(H2,16,17,18)

> <PUBCHEM_IUPAC_INCHIKEY>
SSVLAVRFVKSIND-UHFFFAOYSA-N

> <PUBCHEM_XLOGP3_AA>
1.2

> <PUBCHEM_EXACT_MASS>
346.12119501

> <PUBCHEM_MOLECULAR_FORMULA>
C15H18N6O2S

> <PUBCHEM_MOLECULAR_WEIGHT>
346.4

> <PUBCHEM_SMILES>
CC(C)N1C2=NC=NC(=C2C(=N1)C3=CC(=CC=C3)NS(=O)(=O)C)N

> <PUBCHEM_OPENEYE_CAN_SMILES>
CC(C)N1C2=NC=NC(=C2C(=N1)C3=CC(=CC=C3)NS(=O)(=O)C)N

> <PUBCHEM_OPENEYE_ISO_SMILES>
CC(C)N1C2=NC=NC(=C2C(=N1)C3=CC(=CC=C3)NS(=O)(=O)C)N

> <PUBCHEM_CACTVS_TPSA>
124

> <PUBCHEM_MONOISOTOPIC_WEIGHT>
346.12119501

> <PUBCHEM_TOTAL_CHARGE>
0

> <PUBCHEM_HEAVY_ATOM_COUNT>
24

> <PUBCHEM_ATOM_DEF_STEREO_COUNT>
0

> <PUBCHEM_ATOM_UDEF_STEREO_COUNT>
0

> <PUBCHEM_BOND_DEF_STEREO_COUNT>
0

> <PUBCHEM_BOND_UDEF_STEREO_COUNT>
0

> <PUBCHEM_ISOTOPIC_ATOM_COUNT>
0

> <PUBCHEM_COMPONENT_COUNT>
1

> <PUBCHEM_CACTVS_TAUTO_COUNT>
-1

> <PUBCHEM_COORDINATE_TYPE>
1
5
255

> <PUBCHEM_BONDANNOTATIONS>
11  12  8
11  13  8
11  17  8
14  18  8
14  20  8
18  19  8
19  21  8
20  22  8
21  22  8
4  12  8
4  5  8
5  13  8
6  12  8
6  23  8
8  17  8
8  23  8

$$$$
