49765254
  -OEChem-03202500102D

 60 63  0     0  0  0  0  0  0999 V2000
    4.8379   -3.0818    0.0000 Cl  0  0  0  0  0  0  0  0  0  0  0  0
   11.1275    0.5818    0.0000 N   0  0  0  0  0  0  0  0  0  0  0  0
   13.7256    2.0818    0.0000 N   0  0  0  0  0  0  0  0  0  0  0  0
    9.3954   -1.4182    0.0000 N   0  0  0  0  0  0  0  0  0  0  0  0
    7.6634   -1.4182    0.0000 N   0  0  0  0  0  0  0  0  0  0  0  0
    2.6166   -1.7546    0.0000 N   0  0  0  0  0  0  0  0  0  0  0  0
    5.9313   -1.4182    0.0000 N   0  0  0  0  0  0  0  0  0  0  0  0
    3.1166   -2.6206    0.0000 N   0  0  0  0  0  0  0  0  0  0  0  0
    6.7974    0.0818    0.0000 N   0  0  0  0  0  0  0  0  0  0  0  0
   12.8595    1.5818    0.0000 C   0  0  0  0  0  0  0  0  0  0  0  0
   12.8595    0.5818    0.0000 C   0  0  0  0  0  0  0  0  0  0  0  0
   11.9935    2.0818    0.0000 C   0  0  0  0  0  0  0  0  0  0  0  0
   11.9935    0.0818    0.0000 C   0  0  0  0  0  0  0  0  0  0  0  0
   11.1275    1.5818    0.0000 C   0  0  0  0  0  0  0  0  0  0  0  0
   10.2615    0.0818    0.0000 C   0  0  0  0  0  0  0  0  0  0  0  0
   14.5916    1.5818    0.0000 C   0  0  0  0  0  0  0  0  0  0  0  0
   13.7256    3.0818    0.0000 C   0  0  0  0  0  0  0  0  0  0  0  0
    9.3954    0.5818    0.0000 C   0  0  0  0  0  0  0  0  0  0  0  0
   10.2615   -0.9182    0.0000 C   0  0  0  0  0  0  0  0  0  0  0  0
    8.5294    0.0818    0.0000 C   0  0  0  0  0  0  0  0  0  0  0  0
    8.5294   -0.9182    0.0000 C   0  0  0  0  0  0  0  0  0  0  0  0
    3.0778   -0.0333    0.0000 C   0  0  0  0  0  0  0  0  0  0  0  0
    3.2857   -1.0114    0.0000 C   0  0  0  0  0  0  0  0  0  0  0  0
    4.1993   -1.4182    0.0000 C   0  0  0  0  0  0  0  0  0  0  0  0
    2.1268    0.2757    0.0000 C   0  0  0  0  0  0  0  0  0  0  0  0
    3.8210    0.6358    0.0000 C   0  0  0  0  0  0  0  0  0  0  0  0
    5.0653   -0.9182    0.0000 C   0  0  0  0  0  0  0  0  0  0  0  0
    6.7974   -0.9182    0.0000 C   0  0  0  0  0  0  0  0  0  0  0  0
    4.0948   -2.4127    0.0000 C   0  0  0  0  0  0  0  0  0  0  0  0
    5.0653    0.0818    0.0000 C   0  0  0  0  0  0  0  0  0  0  0  0
    5.9313    0.5818    0.0000 C   0  0  0  0  0  0  0  0  0  0  0  0
   12.8595    2.2018    0.0000 H   0  0  0  0  0  0  0  0  0  0  0  0
   13.0716   -0.0008    0.0000 H   0  0  0  0  0  0  0  0  0  0  0  0
   13.4701    0.6895    0.0000 H   0  0  0  0  0  0  0  0  0  0  0  0
   12.3920    2.5568    0.0000 H   0  0  0  0  0  0  0  0  0  0  0  0
   11.5950    2.5568    0.0000 H   0  0  0  0  0  0  0  0  0  0  0  0
   11.5950   -0.3931    0.0000 H   0  0  0  0  0  0  0  0  0  0  0  0
   12.3920   -0.3931    0.0000 H   0  0  0  0  0  0  0  0  0  0  0  0
   10.9154    2.1644    0.0000 H   0  0  0  0  0  0  0  0  0  0  0  0
   10.5169    1.4742    0.0000 H   0  0  0  0  0  0  0  0  0  0  0  0
   14.2816    1.0449    0.0000 H   0  0  0  0  0  0  0  0  0  0  0  0
   15.1285    1.2718    0.0000 H   0  0  0  0  0  0  0  0  0  0  0  0
   14.9016    2.1188    0.0000 H   0  0  0  0  0  0  0  0  0  0  0  0
   14.3456    3.0818    0.0000 H   0  0  0  0  0  0  0  0  0  0  0  0
   13.7256    3.7018    0.0000 H   0  0  0  0  0  0  0  0  0  0  0  0
   13.1056    3.0818    0.0000 H   0  0  0  0  0  0  0  0  0  0  0  0
    9.3954    1.2018    0.0000 H   0  0  0  0  0  0  0  0  0  0  0  0
   10.7984   -1.2282    0.0000 H   0  0  0  0  0  0  0  0  0  0  0  0
    7.9925    0.3918    0.0000 H   0  0  0  0  0  0  0  0  0  0  0  0
    2.6171   -0.4482    0.0000 H   0  0  0  0  0  0  0  0  0  0  0  0
    7.6634   -2.0382    0.0000 H   0  0  0  0  0  0  0  0  0  0  0  0
    2.3184    0.8654    0.0000 H   0  0  0  0  0  0  0  0  0  0  0  0
    1.5371    0.4673    0.0000 H   0  0  0  0  0  0  0  0  0  0  0  0
    1.9352   -0.3139    0.0000 H   0  0  0  0  0  0  0  0  0  0  0  0
    4.2358    0.1751    0.0000 H   0  0  0  0  0  0  0  0  0  0  0  0
    4.2817    1.0507    0.0000 H   0  0  0  0  0  0  0  0  0  0  0  0
    3.4061    1.0966    0.0000 H   0  0  0  0  0  0  0  0  0  0  0  0
    2.0000   -1.6898    0.0000 H   0  0  0  0  0  0  0  0  0  0  0  0
    4.5284    0.3918    0.0000 H   0  0  0  0  0  0  0  0  0  0  0  0
    5.9313    1.2018    0.0000 H   0  0  0  0  0  0  0  0  0  0  0  0
  1 29  1  0  0  0  0
  2 13  1  0  0  0  0
  2 14  1  0  0  0  0
  2 15  1  0  0  0  0
  3 10  1  0  0  0  0
  3 16  1  0  0  0  0
  3 17  1  0  0  0  0
  4 19  1  0  0  0  0
  4 21  2  0  0  0  0
  5 21  1  0  0  0  0
  5 28  1  0  0  0  0
  5 51  1  0  0  0  0
  6  8  1  0  0  0  0
  6 23  1  0  0  0  0
  6 58  1  0  0  0  0
  7 27  2  0  0  0  0
  7 28  1  0  0  0  0
  8 29  2  0  0  0  0
  9 28  2  0  0  0  0
  9 31  1  0  0  0  0
 10 11  1  0  0  0  0
 10 12  1  0  0  0  0
 10 32  1  0  0  0  0
 11 13  1  0  0  0  0
 11 33  1  0  0  0  0
 11 34  1  0  0  0  0
 12 14  1  0  0  0  0
 12 35  1  0  0  0  0
 12 36  1  0  0  0  0
 13 37  1  0  0  0  0
 13 38  1  0  0  0  0
 14 39  1  0  0  0  0
 14 40  1  0  0  0  0
 15 18  1  0  0  0  0
 15 19  2  0  0  0  0
 16 41  1  0  0  0  0
 16 42  1  0  0  0  0
 16 43  1  0  0  0  0
 17 44  1  0  0  0  0
 17 45  1  0  0  0  0
 17 46  1  0  0  0  0
 18 20  2  0  0  0  0
 18 47  1  0  0  0  0
 19 48  1  0  0  0  0
 20 21  1  0  0  0  0
 20 49  1  0  0  0  0
 22 23  1  0  0  0  0
 22 25  1  0  0  0  0
 22 26  1  0  0  0  0
 22 50  1  0  0  0  0
 23 24  2  0  0  0  0
 24 27  1  0  0  0  0
 24 29  1  0  0  0  0
 25 52  1  0  0  0  0
 25 53  1  0  0  0  0
 25 54  1  0  0  0  0
 26 55  1  0  0  0  0
 26 56  1  0  0  0  0
 26 57  1  0  0  0  0
 27 30  1  0  0  0  0
 30 31  2  0  0  0  0
 30 59  1  0  0  0  0
 31 60  1  0  0  0  0
M  END
> <PUBCHEM_COMPOUND_CID>
49765254

> <PUBCHEM_COMPOUND_CANONICALIZED>
1

> <PUBCHEM_CACTVS_COMPLEXITY>
556

> <PUBCHEM_CACTVS_HBOND_ACCEPTOR>
7

> <PUBCHEM_CACTVS_HBOND_DONOR>
2

> <PUBCHEM_CACTVS_ROTATABLE_BOND>
6

> <PUBCHEM_CACTVS_SUBSKEYS>
AAADceB7wAAEAAAAAAAAAAAAAAAAAWAAAAAsWLAAAAAAAAAB+AAAHAIYAAAADSrBHiQ/8JfrEACiAzZnZACShCkxFqAZ+SA4dpiIaOLB29GUpAhomALIyCcQgEAOAAAAAAAAAAAAAAAAAAAAAAAAAAAAAA==

> <PUBCHEM_IUPAC_OPENEYE_NAME>
4-(3-chloro-5-isopropyl-1H-pyrazol-4-yl)-N-[5-[4-(dimethylamino)-1-piperidyl]-2-pyridyl]pyrimidin-2-amine

> <PUBCHEM_IUPAC_CAS_NAME>
4-(3-chloro-5-propan-2-yl-1H-pyrazol-4-yl)-N-[5-[4-(dimethylamino)-1-piperidinyl]-2-pyridinyl]-2-pyrimidinamine

> <PUBCHEM_IUPAC_NAME_MARKUP>
4-(3-chloro-5-propan-2-yl-1<I>H</I>-pyrazol-4-yl)-<I>N</I>-[5-[4-(dimethylamino)piperidin-1-yl]pyridin-2-yl]pyrimidin-2-amine

> <PUBCHEM_IUPAC_NAME>
4-(3-chloro-5-propan-2-yl-1H-pyrazol-4-yl)-N-[5-[4-(dimethylamino)piperidin-1-yl]pyridin-2-yl]pyrimidin-2-amine

> <PUBCHEM_IUPAC_SYSTEMATIC_NAME>
4-(3-chloranyl-5-propan-2-yl-1H-pyrazol-4-yl)-N-[5-[4-(dimethylamino)piperidin-1-yl]pyridin-2-yl]pyrimidin-2-amine

> <PUBCHEM_IUPAC_TRADITIONAL_NAME>
[1-[6-[[4-(3-chloro-5-isopropyl-1H-pyrazol-4-yl)pyrimidin-2-yl]amino]-3-pyridyl]-4-piperidyl]-dimethyl-amine

> <PUBCHEM_IUPAC_INCHI>
InChI=1S/C22H29ClN8/c1-14(2)20-19(21(23)29-28-20)17-7-10-24-22(26-17)27-18-6-5-16(13-25-18)31-11-8-15(9-12-31)30(3)4/h5-7,10,13-15H,8-9,11-12H2,1-4H3,(H,28,29)(H,24,25,26,27)

> <PUBCHEM_IUPAC_INCHIKEY>
JKFGTURSEBTJIZ-UHFFFAOYSA-N

> <PUBCHEM_XLOGP3_AA>
4.1

> <PUBCHEM_EXACT_MASS>
440.2203707

> <PUBCHEM_MOLECULAR_FORMULA>
C22H29ClN8

> <PUBCHEM_MOLECULAR_WEIGHT>
441.0

> <PUBCHEM_SMILES>
CC(C)C1=C(C(=NN1)Cl)C2=NC(=NC=C2)NC3=NC=C(C=C3)N4CCC(CC4)N(C)C

> <PUBCHEM_OPENEYE_CAN_SMILES>
CC(C)C1=C(C(=NN1)Cl)C2=NC(=NC=C2)NC3=NC=C(C=C3)N4CCC(CC4)N(C)C

> <PUBCHEM_OPENEYE_ISO_SMILES>
CC(C)C1=C(C(=NN1)Cl)C2=NC(=NC=C2)NC3=NC=C(C=C3)N4CCC(CC4)N(C)C

> <PUBCHEM_CACTVS_TPSA>
85.9

> <PUBCHEM_MONOISOTOPIC_WEIGHT>
440.2203707

> <PUBCHEM_TOTAL_CHARGE>
0

> <PUBCHEM_HEAVY_ATOM_COUNT>
31

> <PUBCHEM_ATOM_DEF_STEREO_COUNT>
0

> <PUBCHEM_ATOM_UDEF_STEREO_COUNT>
0

> <PUBCHEM_BOND_DEF_STEREO_COUNT>
0

> <PUBCHEM_BOND_UDEF_STEREO_COUNT>
0

> <PUBCHEM_ISOTOPIC_ATOM_COUNT>
0

> <PUBCHEM_COMPONENT_COUNT>
1

> <PUBCHEM_CACTVS_TAUTO_COUNT>
-1

> <PUBCHEM_COORDINATE_TYPE>
1
5
255

> <PUBCHEM_BONDANNOTATIONS>
15  18  8
15  19  8
18  20  8
20  21  8
23  24  8
24  29  8
27  30  8
30  31  8
4  19  8
4  21  8
6  23  8
6  8  8
7  27  8
7  28  8
8  29  8
9  28  8
9  31  8

$$$$
