9863786
  -OEChem-03202500192D

 46 49  0     1  0  0  0  0  0999 V2000
    5.9209    4.0355    0.0000 F   0  0  0  0  0  0  0  0  0  0  0  0
   10.7619   -3.1694    0.0000 O   0  0  0  0  0  0  0  0  0  0  0  0
    4.6783   -1.3761    0.0000 N   0  0  0  0  0  0  0  0  0  0  0  0
    2.8660    0.4286    0.0000 N   0  0  0  0  0  0  0  0  0  0  0  0
    8.2619   -2.3034    0.0000 N   0  0  0  0  0  0  0  0  0  0  0  0
    8.2619   -0.5714    0.0000 N   0  0  0  0  0  0  0  0  0  0  0  0
    4.6783    0.2334    0.0000 C   0  0  0  0  0  0  0  0  0  0  0  0
    5.2619   -0.5714    0.0000 C   0  0  0  0  0  0  0  0  0  0  0  0
    3.7320   -0.0714    0.0000 C   0  0  0  0  0  0  0  0  0  0  0  0
    3.7320   -1.0714    0.0000 C   0  0  0  0  0  0  0  0  0  0  0  0
    6.2619   -0.5714    0.0000 C   0  0  0  0  0  0  0  0  0  0  0  0
    4.9889    1.1839    0.0000 C   0  0  0  0  0  0  0  0  0  0  0  0
    6.7619   -1.4374    0.0000 C   0  0  0  0  0  0  0  0  0  0  0  0
    2.8660   -1.5714    0.0000 C   0  0  0  0  0  0  0  0  0  0  0  0
    7.7619   -1.4374    0.0000 C   0  0  0  0  0  0  0  0  0  0  0  0
    6.7619    0.2947    0.0000 C   0  0  0  0  0  0  0  0  0  0  0  0
    9.2619   -2.3034    0.0000 C   0  0  0  0  0  0  0  0  0  0  0  0
    9.7619   -3.1694    0.0000 C   0  0  2  0  0  0  0  0  0  0  0  0
    4.3211    1.9282    0.0000 C   0  0  0  0  0  0  0  0  0  0  0  0
    5.9674    1.3901    0.0000 C   0  0  0  0  0  0  0  0  0  0  0  0
    2.0000   -1.0714    0.0000 C   0  0  0  0  0  0  0  0  0  0  0  0
    2.0000   -0.0714    0.0000 C   0  0  0  0  0  0  0  0  0  0  0  0
    7.7619    0.2947    0.0000 C   0  0  0  0  0  0  0  0  0  0  0  0
    4.6318    2.8787    0.0000 C   0  0  0  0  0  0  0  0  0  0  0  0
    6.2781    2.3406    0.0000 C   0  0  0  0  0  0  0  0  0  0  0  0
    9.2619   -4.0355    0.0000 C   0  0  0  0  0  0  0  0  0  0  0  0
    5.6103    3.0849    0.0000 C   0  0  0  0  0  0  0  0  0  0  0  0
    4.8709   -1.9654    0.0000 H   0  0  0  0  0  0  0  0  0  0  0  0
    6.4519   -1.9743    0.0000 H   0  0  0  0  0  0  0  0  0  0  0  0
    2.8660   -2.1914    0.0000 H   0  0  0  0  0  0  0  0  0  0  0  0
    6.4519    0.8316    0.0000 H   0  0  0  0  0  0  0  0  0  0  0  0
    9.8445   -2.0914    0.0000 H   0  0  0  0  0  0  0  0  0  0  0  0
    9.1542   -1.6928    0.0000 H   0  0  0  0  0  0  0  0  0  0  0  0
   10.0719   -2.6325    0.0000 H   0  0  0  0  0  0  0  0  0  0  0  0
    7.9519   -2.8403    0.0000 H   0  0  0  0  0  0  0  0  0  0  0  0
    3.7144    1.8003    0.0000 H   0  0  0  0  0  0  0  0  0  0  0  0
    6.3815    0.9286    0.0000 H   0  0  0  0  0  0  0  0  0  0  0  0
    1.4631   -1.3814    0.0000 H   0  0  0  0  0  0  0  0  0  0  0  0
    1.4631    0.2386    0.0000 H   0  0  0  0  0  0  0  0  0  0  0  0
    8.0719    0.8316    0.0000 H   0  0  0  0  0  0  0  0  0  0  0  0
    4.2177    3.3402    0.0000 H   0  0  0  0  0  0  0  0  0  0  0  0
    6.8848    2.4685    0.0000 H   0  0  0  0  0  0  0  0  0  0  0  0
    8.7249   -3.7255    0.0000 H   0  0  0  0  0  0  0  0  0  0  0  0
    8.9519   -4.5724    0.0000 H   0  0  0  0  0  0  0  0  0  0  0  0
    9.7988   -4.3455    0.0000 H   0  0  0  0  0  0  0  0  0  0  0  0
   11.0719   -3.7064    0.0000 H   0  0  0  0  0  0  0  0  0  0  0  0
  1 27  1  0  0  0  0
 18  2  1  1  0  0  0
  2 46  1  0  0  0  0
  3  8  1  0  0  0  0
  3 10  1  0  0  0  0
  3 28  1  0  0  0  0
  4  9  1  0  0  0  0
  4 22  2  0  0  0  0
  5 15  1  0  0  0  0
  5 17  1  0  0  0  0
  5 35  1  0  0  0  0
  6 15  2  0  0  0  0
  6 23  1  0  0  0  0
  7  8  2  0  0  0  0
  7  9  1  0  0  0  0
  7 12  1  0  0  0  0
  8 11  1  0  0  0  0
  9 10  2  0  0  0  0
 10 14  1  0  0  0  0
 11 13  2  0  0  0  0
 11 16  1  0  0  0  0
 12 19  2  0  0  0  0
 12 20  1  0  0  0  0
 13 15  1  0  0  0  0
 13 29  1  0  0  0  0
 14 21  2  0  0  0  0
 14 30  1  0  0  0  0
 16 23  2  0  0  0  0
 16 31  1  0  0  0  0
 17 18  1  0  0  0  0
 17 32  1  0  0  0  0
 17 33  1  0  0  0  0
 18 26  1  0  0  0  0
 18 34  1  0  0  0  0
 19 24  1  0  0  0  0
 19 36  1  0  0  0  0
 20 25  2  0  0  0  0
 20 37  1  0  0  0  0
 21 22  1  0  0  0  0
 21 38  1  0  0  0  0
 22 39  1  0  0  0  0
 23 40  1  0  0  0  0
 24 27  2  0  0  0  0
 24 41  1  0  0  0  0
 25 27  1  0  0  0  0
 25 42  1  0  0  0  0
 26 43  1  0  0  0  0
 26 44  1  0  0  0  0
 26 45  1  0  0  0  0
M  END
> <PUBCHEM_COMPOUND_CID>
9863786

> <PUBCHEM_COMPOUND_CANONICALIZED>
1

> <PUBCHEM_CACTVS_COMPLEXITY>
473

> <PUBCHEM_CACTVS_HBOND_ACCEPTOR>
5

> <PUBCHEM_CACTVS_HBOND_DONOR>
3

> <PUBCHEM_CACTVS_ROTATABLE_BOND>
5

> <PUBCHEM_CACTVS_SUBSKEYS>
AAADceB7oQAAAAAAAAAAAAAAAAAAAWAAAAA8WIAAAAAAAFgB/gAAHwAQCAAADBzhng4/8LLJkgCgAzZnZACCgC0xEiAJ2aA4dJiKcOLA2dGUJAhokALYyCcQgMAOgAAAAAAAAAAAAAAAAAAAAAAAAAAAAA==

> <PUBCHEM_IUPAC_OPENEYE_NAME>
(2S)-1-[[4-[3-(4-fluorophenyl)-1H-pyrrolo[3,2-b]pyridin-2-yl]-2-pyridyl]amino]propan-2-ol

> <PUBCHEM_IUPAC_CAS_NAME>
(2S)-1-[[4-[3-(4-fluorophenyl)-1H-pyrrolo[3,2-b]pyridin-2-yl]-2-pyridinyl]amino]-2-propanol

> <PUBCHEM_IUPAC_NAME_MARKUP>
(2<I>S</I>)-1-[[4-[3-(4-fluorophenyl)-1<I>H</I>-pyrrolo[3,2-b]pyridin-2-yl]pyridin-2-yl]amino]propan-2-ol

> <PUBCHEM_IUPAC_NAME>
(2S)-1-[[4-[3-(4-fluorophenyl)-1H-pyrrolo[3,2-b]pyridin-2-yl]pyridin-2-yl]amino]propan-2-ol

> <PUBCHEM_IUPAC_SYSTEMATIC_NAME>
(2S)-1-[[4-[3-(4-fluorophenyl)-1H-pyrrolo[3,2-b]pyridin-2-yl]pyridin-2-yl]amino]propan-2-ol

> <PUBCHEM_IUPAC_TRADITIONAL_NAME>
(2S)-1-[[4-[3-(4-fluorophenyl)-1H-pyrrolo[3,2-b]pyridin-2-yl]-2-pyridyl]amino]propan-2-ol

> <PUBCHEM_IUPAC_INCHI>
InChI=1S/C21H19FN4O/c1-13(27)12-25-18-11-15(8-10-23-18)20-19(14-4-6-16(22)7-5-14)21-17(26-20)3-2-9-24-21/h2-11,13,26-27H,12H2,1H3,(H,23,25)/t13-/m0/s1

> <PUBCHEM_IUPAC_INCHIKEY>
KCXCFBQZWGUDQC-ZDUSSCGKSA-N

> <PUBCHEM_XLOGP3_AA>
3.5

> <PUBCHEM_EXACT_MASS>
362.15428940

> <PUBCHEM_MOLECULAR_FORMULA>
C21H19FN4O

> <PUBCHEM_MOLECULAR_WEIGHT>
362.4

> <PUBCHEM_SMILES>
C[C@@H](CNC1=NC=CC(=C1)C2=C(C3=C(N2)C=CC=N3)C4=CC=C(C=C4)F)O

> <PUBCHEM_OPENEYE_CAN_SMILES>
CC(CNC1=NC=CC(=C1)C2=C(C3=C(N2)C=CC=N3)C4=CC=C(C=C4)F)O

> <PUBCHEM_OPENEYE_ISO_SMILES>
C[C@@H](CNC1=NC=CC(=C1)C2=C(C3=C(N2)C=CC=N3)C4=CC=C(C=C4)F)O

> <PUBCHEM_CACTVS_TPSA>
73.8

> <PUBCHEM_MONOISOTOPIC_WEIGHT>
362.15428940

> <PUBCHEM_TOTAL_CHARGE>
0

> <PUBCHEM_HEAVY_ATOM_COUNT>
27

> <PUBCHEM_ATOM_DEF_STEREO_COUNT>
1

> <PUBCHEM_ATOM_UDEF_STEREO_COUNT>
0

> <PUBCHEM_BOND_DEF_STEREO_COUNT>
0

> <PUBCHEM_BOND_UDEF_STEREO_COUNT>
0

> <PUBCHEM_ISOTOPIC_ATOM_COUNT>
0

> <PUBCHEM_COMPONENT_COUNT>
1

> <PUBCHEM_CACTVS_TAUTO_COUNT>
-1

> <PUBCHEM_COORDINATE_TYPE>
1
5
255

> <PUBCHEM_BONDANNOTATIONS>
10  14  8
11  13  8
11  16  8
12  19  8
12  20  8
13  15  8
14  21  8
16  23  8
19  24  8
18  2  5
20  25  8
21  22  8
24  27  8
25  27  8
3  10  8
3  8  8
4  22  8
4  9  8
6  15  8
6  23  8
7  8  8
7  9  8
9  10  8

$$$$
