13009355
  -OEChem-03202505342D

 71 77  0     1  0  0  0  0  0999 V2000
    5.0389   -1.7052    0.0000 O   0  0  0  0  0  0  0  0  0  0  0  0
    4.1069    1.1464    0.0000 O   0  0  0  0  0  0  0  0  0  0  0  0
    2.7712   -0.3422    0.0000 O   0  0  0  0  0  0  0  0  0  0  0  0
    2.4141   -2.0370    0.0000 O   0  0  0  0  0  0  0  0  0  0  0  0
   10.4112   -1.7552    0.0000 O   0  0  0  0  0  0  0  0  0  0  0  0
   10.4112    1.7552    0.0000 O   0  0  0  0  0  0  0  0  0  0  0  0
    6.8443   -4.7683    0.0000 O   0  0  0  0  0  0  0  0  0  0  0  0
    6.8443    4.7683    0.0000 O   0  0  0  0  0  0  0  0  0  0  0  0
   13.6842    1.7320    0.0000 O   0  0  0  0  0  0  0  0  0  0  0  0
   12.1842    2.5981    0.0000 O   0  0  0  0  0  0  0  0  0  0  0  0
    6.6853   -1.1671    0.0000 N   0  0  0  0  0  0  0  0  0  0  0  0
    6.6853    1.1671    0.0000 N   0  0  0  0  0  0  0  0  0  0  0  0
   10.6842    0.0000    0.0000 N   0  0  0  0  0  0  0  0  0  0  0  0
   11.6842    0.0000    0.0000 N   0  0  0  0  0  0  0  0  0  0  0  0
    5.7068   -0.9609    0.0000 C   0  0  2  0  0  0  0  0  0  0  0  0
    7.4223   -0.5000    0.0000 C   0  0  0  0  0  0  0  0  0  0  0  0
    5.3961   -0.0103    0.0000 C   0  0  0  0  0  0  0  0  0  0  0  0
    4.4176    0.1959    0.0000 C   0  0  2  0  0  0  0  0  0  0  0  0
    8.2883   -1.0000    0.0000 C   0  0  0  0  0  0  0  0  0  0  0  0
    3.7498   -0.5484    0.0000 C   0  0  1  0  0  0  0  0  0  0  0  0
    4.0604   -1.4990    0.0000 C   0  0  1  0  0  0  0  0  0  0  0  0
    7.0904   -2.0749    0.0000 C   0  0  0  0  0  0  0  0  0  0  0  0
    7.4223    0.5000    0.0000 C   0  0  0  0  0  0  0  0  0  0  0  0
    8.0791   -1.9718    0.0000 C   0  0  0  0  0  0  0  0  0  0  0  0
    9.1543   -0.5000    0.0000 C   0  0  0  0  0  0  0  0  0  0  0  0
    8.2883    1.0000    0.0000 C   0  0  0  0  0  0  0  0  0  0  0  0
    9.1543    0.5000    0.0000 C   0  0  0  0  0  0  0  0  0  0  0  0
    8.0791    1.9718    0.0000 C   0  0  0  0  0  0  0  0  0  0  0  0
    3.3926   -2.2433    0.0000 C   0  0  0  0  0  0  0  0  0  0  0  0
    7.0904    2.0749    0.0000 C   0  0  0  0  0  0  0  0  0  0  0  0
   10.1006   -0.8047    0.0000 C   0  0  0  0  0  0  0  0  0  0  0  0
    6.6539   -3.0138    0.0000 C   0  0  0  0  0  0  0  0  0  0  0  0
   10.1006    0.8047    0.0000 C   0  0  0  0  0  0  0  0  0  0  0  0
    8.6999   -2.8006    0.0000 C   0  0  0  0  0  0  0  0  0  0  0  0
    7.2553   -3.8567    0.0000 C   0  0  0  0  0  0  0  0  0  0  0  0
    8.2852   -3.7494    0.0000 C   0  0  0  0  0  0  0  0  0  0  0  0
    8.6999    2.8006    0.0000 C   0  0  0  0  0  0  0  0  0  0  0  0
    6.6539    3.0138    0.0000 C   0  0  0  0  0  0  0  0  0  0  0  0
   12.1842    0.8660    0.0000 C   0  0  0  0  0  0  0  0  0  0  0  0
    8.2852    3.7494    0.0000 C   0  0  0  0  0  0  0  0  0  0  0  0
    7.2553    3.8567    0.0000 C   0  0  0  0  0  0  0  0  0  0  0  0
   13.1842    0.8660    0.0000 C   0  0  0  0  0  0  0  0  0  0  0  0
   11.6842    1.7320    0.0000 C   0  0  0  0  0  0  0  0  0  0  0  0
    6.1208   -0.4994    0.0000 H   0  0  0  0  0  0  0  0  0  0  0  0
    6.0099    0.0770    0.0000 H   0  0  0  0  0  0  0  0  0  0  0  0
    5.4167    0.6093    0.0000 H   0  0  0  0  0  0  0  0  0  0  0  0
    4.8317    0.6573    0.0000 H   0  0  0  0  0  0  0  0  0  0  0  0
    3.5571    0.0409    0.0000 H   0  0  0  0  0  0  0  0  0  0  0  0
    4.2530   -2.0883    0.0000 H   0  0  0  0  0  0  0  0  0  0  0  0
    6.0786    1.0392    0.0000 H   0  0  0  0  0  0  0  0  0  0  0  0
    3.1613   -2.8185    0.0000 H   0  0  0  0  0  0  0  0  0  0  0  0
    3.9189   -2.5709    0.0000 H   0  0  0  0  0  0  0  0  0  0  0  0
    6.0365   -3.0710    0.0000 H   0  0  0  0  0  0  0  0  0  0  0  0
    9.3157   -2.7292    0.0000 H   0  0  0  0  0  0  0  0  0  0  0  0
    3.5003    1.2743    0.0000 H   0  0  0  0  0  0  0  0  0  0  0  0
    2.5786    0.2471    0.0000 H   0  0  0  0  0  0  0  0  0  0  0  0
    8.6511   -4.2499    0.0000 H   0  0  0  0  0  0  0  0  0  0  0  0
    9.3157    2.7292    0.0000 H   0  0  0  0  0  0  0  0  0  0  0  0
    6.0365    3.0710    0.0000 H   0  0  0  0  0  0  0  0  0  0  0  0
   11.9942   -0.5369    0.0000 H   0  0  0  0  0  0  0  0  0  0  0  0
   12.4942    0.3291    0.0000 H   0  0  0  0  0  0  0  0  0  0  0  0
    8.6511    4.2499    0.0000 H   0  0  0  0  0  0  0  0  0  0  0  0
    2.0000   -2.4985    0.0000 H   0  0  0  0  0  0  0  0  0  0  0  0
   13.0765    0.2554    0.0000 H   0  0  0  0  0  0  0  0  0  0  0  0
   13.7668    0.6540    0.0000 H   0  0  0  0  0  0  0  0  0  0  0  0
   11.2092    2.1306    0.0000 H   0  0  0  0  0  0  0  0  0  0  0  0
   11.2092    1.3335    0.0000 H   0  0  0  0  0  0  0  0  0  0  0  0
    7.2063   -5.2716    0.0000 H   0  0  0  0  0  0  0  0  0  0  0  0
    7.2063    5.2716    0.0000 H   0  0  0  0  0  0  0  0  0  0  0  0
   14.3042    1.7320    0.0000 H   0  0  0  0  0  0  0  0  0  0  0  0
   11.8742    3.1350    0.0000 H   0  0  0  0  0  0  0  0  0  0  0  0
  1 15  1  0  0  0  0
  1 21  1  0  0  0  0
 18  2  1  6  0  0  0
  2 55  1  0  0  0  0
 20  3  1  1  0  0  0
  3 56  1  0  0  0  0
  4 29  1  0  0  0  0
  4 63  1  0  0  0  0
  5 31  2  0  0  0  0
  6 33  2  0  0  0  0
  7 35  1  0  0  0  0
  7 68  1  0  0  0  0
  8 41  1  0  0  0  0
  8 69  1  0  0  0  0
  9 42  1  0  0  0  0
  9 70  1  0  0  0  0
 10 43  1  0  0  0  0
 10 71  1  0  0  0  0
 15 11  1  1  0  0  0
 11 16  1  0  0  0  0
 11 22  1  0  0  0  0
 12 23  1  0  0  0  0
 12 30  1  0  0  0  0
 12 50  1  0  0  0  0
 13 14  1  0  0  0  0
 13 31  1  0  0  0  0
 13 33  1  0  0  0  0
 14 39  1  0  0  0  0
 14 60  1  0  0  0  0
 15 17  1  0  0  0  0
 15 44  1  0  0  0  0
 16 19  1  0  0  0  0
 16 23  2  0  0  0  0
 17 18  1  0  0  0  0
 17 45  1  0  0  0  0
 17 46  1  0  0  0  0
 18 20  1  0  0  0  0
 18 47  1  0  0  0  0
 19 24  1  0  0  0  0
 19 25  2  0  0  0  0
 20 21  1  0  0  0  0
 20 48  1  0  0  0  0
 21 29  1  6  0  0  0
 21 49  1  0  0  0  0
 22 24  2  0  0  0  0
 22 32  1  0  0  0  0
 23 26  1  0  0  0  0
 24 34  1  0  0  0  0
 25 27  1  0  0  0  0
 25 31  1  0  0  0  0
 26 27  2  0  0  0  0
 26 28  1  0  0  0  0
 27 33  1  0  0  0  0
 28 30  2  0  0  0  0
 28 37  1  0  0  0  0
 29 51  1  0  0  0  0
 29 52  1  0  0  0  0
 30 38  1  0  0  0  0
 32 35  2  0  0  0  0
 32 53  1  0  0  0  0
 34 36  2  0  0  0  0
 34 54  1  0  0  0  0
 35 36  1  0  0  0  0
 36 57  1  0  0  0  0
 37 40  2  0  0  0  0
 37 58  1  0  0  0  0
 38 41  2  0  0  0  0
 38 59  1  0  0  0  0
 39 42  1  0  0  0  0
 39 43  1  0  0  0  0
 39 61  1  0  0  0  0
 40 41  1  0  0  0  0
 40 62  1  0  0  0  0
 42 64  1  0  0  0  0
 42 65  1  0  0  0  0
 43 66  1  0  0  0  0
 43 67  1  0  0  0  0
M  END
> <PUBCHEM_COMPOUND_CID>
13009355

> <PUBCHEM_COMPOUND_CANONICALIZED>
1

> <PUBCHEM_CACTVS_COMPLEXITY>
1080

> <PUBCHEM_CACTVS_HBOND_ACCEPTOR>
11

> <PUBCHEM_CACTVS_HBOND_DONOR>
9

> <PUBCHEM_CACTVS_ROTATABLE_BOND>
6

> <PUBCHEM_CACTVS_SUBSKEYS>
AAADceB7vAAAAAAAAAAAAAAAAAAAAWLFgAA0YMEAAAAAAFgB/gAAHgAYCAAADDzhngYwxvPvlgCoAyVyVACCgCQlMiAa+aE+fNgLdvLClZOecQhn1DnL2Qf92fOe6AACQgASACDQAASEACQAQAAAAAAAAA==

> <PUBCHEM_IUPAC_OPENEYE_NAME>
3-[(2S,4R,5S,6R)-4,5-dihydroxy-6-(hydroxymethyl)tetrahydropyran-2-yl]-6,20-dihydroxy-13-[[2-hydroxy-1-(hydroxymethyl)ethyl]amino]-3,13,23-triazahexacyclo[14.7.0.02,10.04,9.011,15.017,22]tricosa-1,4(9),5,7,10,15,17(22),18,20-nonaene-12,14-dione

> <PUBCHEM_IUPAC_CAS_NAME>
3-[(2S,4R,5S,6R)-4,5-dihydroxy-6-(hydroxymethyl)-2-oxanyl]-13-(1,3-dihydroxypropan-2-ylamino)-6,20-dihydroxy-3,13,23-triazahexacyclo[14.7.0.02,10.04,9.011,15.017,22]tricosa-1,4(9),5,7,10,15,17(22),18,20-nonaene-12,14-dione

> <PUBCHEM_IUPAC_NAME_MARKUP>
3-[(2<I>S</I>,4<I>R</I>,5<I>S</I>,6<I>R</I>)-4,5-dihydroxy-6-(hydroxymethyl)oxan-2-yl]-13-(1,3-dihydroxypropan-2-ylamino)-6,20-dihydroxy-3,13,23-triazahexacyclo[14.7.0.0<SUP>2,10</SUP>.0<SUP>4,9</SUP>.0<SUP>11,15</SUP>.0<SUP>17,22</SUP>]tricosa-1,4(9),5,7,10,15,17(22),18,20-nonaene-12,14-dione

> <PUBCHEM_IUPAC_NAME>
3-[(2S,4R,5S,6R)-4,5-dihydroxy-6-(hydroxymethyl)oxan-2-yl]-13-(1,3-dihydroxypropan-2-ylamino)-6,20-dihydroxy-3,13,23-triazahexacyclo[14.7.0.02,10.04,9.011,15.017,22]tricosa-1,4(9),5,7,10,15,17(22),18,20-nonaene-12,14-dione

> <PUBCHEM_IUPAC_SYSTEMATIC_NAME>
13-[1,3-bis(oxidanyl)propan-2-ylamino]-3-[(2S,4R,5S,6R)-6-(hydroxymethyl)-4,5-bis(oxidanyl)oxan-2-yl]-6,20-bis(oxidanyl)-3,13,23-triazahexacyclo[14.7.0.02,10.04,9.011,15.017,22]tricosa-1,4(9),5,7,10,15,17(22),18,20-nonaene-12,14-dione

> <PUBCHEM_IUPAC_TRADITIONAL_NAME>
3-[(2S,4R,5S,6R)-4,5-dihydroxy-6-methylol-tetrahydropyran-2-yl]-6,20-dihydroxy-13-[(2-hydroxy-1-methylol-ethyl)amino]-3,13,23-triazahexacyclo[14.7.0.02,10.04,9.011,15.017,22]tricosa-1,4(9),5,7,10,15,17(22),18,20-nonaene-12,14-quinone

> <PUBCHEM_IUPAC_INCHI>
InChI=1S/C29H28N4O10/c34-8-11(9-35)31-33-28(41)23-21-14-3-1-12(37)5-16(14)30-25(21)26-22(24(23)29(33)42)15-4-2-13(38)6-17(15)32(26)20-7-18(39)27(40)19(10-36)43-20/h1-6,11,18-20,27,30-31,34-40H,7-10H2/t18-,19-,20+,27+/m1/s1

> <PUBCHEM_IUPAC_INCHIKEY>
NNCLECBHLDRSRM-PFACBQEBSA-N

> <PUBCHEM_XLOGP3_AA>
0.3

> <PUBCHEM_EXACT_MASS>
592.18054310

> <PUBCHEM_MOLECULAR_FORMULA>
C29H28N4O10

> <PUBCHEM_MOLECULAR_WEIGHT>
592.6

> <PUBCHEM_SMILES>
C1[C@H]([C@@H]([C@H](O[C@@H]1N2C3=C(C=CC(=C3)O)C4=C5C(=C6C7=C(C=C(C=C7)O)NC6=C42)C(=O)N(C5=O)NC(CO)CO)CO)O)O

> <PUBCHEM_OPENEYE_CAN_SMILES>
C1C(C(C(OC1N2C3=C(C=CC(=C3)O)C4=C5C(=C6C7=C(C=C(C=C7)O)NC6=C42)C(=O)N(C5=O)NC(CO)CO)CO)O)O

> <PUBCHEM_OPENEYE_ISO_SMILES>
C1[C@H]([C@@H]([C@H](O[C@@H]1N2C3=C(C=CC(=C3)O)C4=C5C(=C6C7=C(C=C(C=C7)O)NC6=C42)C(=O)N(C5=O)NC(CO)CO)CO)O)O

> <PUBCHEM_CACTVS_TPSA>
221

> <PUBCHEM_MONOISOTOPIC_WEIGHT>
592.18054310

> <PUBCHEM_TOTAL_CHARGE>
0

> <PUBCHEM_HEAVY_ATOM_COUNT>
43

> <PUBCHEM_ATOM_DEF_STEREO_COUNT>
4

> <PUBCHEM_ATOM_UDEF_STEREO_COUNT>
0

> <PUBCHEM_BOND_DEF_STEREO_COUNT>
0

> <PUBCHEM_BOND_UDEF_STEREO_COUNT>
0

> <PUBCHEM_ISOTOPIC_ATOM_COUNT>
0

> <PUBCHEM_COMPONENT_COUNT>
1

> <PUBCHEM_CACTVS_TAUTO_COUNT>
-1

> <PUBCHEM_COORDINATE_TYPE>
1
5
255

> <PUBCHEM_BONDANNOTATIONS>
15  11  5
11  16  8
11  22  8
12  23  8
12  30  8
16  19  8
16  23  8
19  24  8
19  25  8
18  2  6
21  29  6
22  24  8
22  32  8
23  26  8
24  34  8
25  27  8
26  27  8
26  28  8
28  30  8
28  37  8
20  3  5
30  38  8
32  35  8
34  36  8
35  36  8
37  40  8
38  41  8
40  41  8

$$$$
