49830430
  -OEChem-03202502092D

 57 61  0     1  0  0  0  0  0999 V2000
    4.5981   -0.0530    0.0000 O   0  0  0  0  0  0  0  0  0  0  0  0
   10.5920   -3.5530    0.0000 O   0  0  0  0  0  0  0  0  0  0  0  0
    9.0084   -4.3577    0.0000 N   0  0  0  0  0  0  0  0  0  0  0  0
    4.5981    1.9470    0.0000 N   0  0  0  0  0  0  0  0  0  0  0  0
   10.7059   -0.6787    0.0000 N   0  0  0  0  0  0  0  0  0  0  0  0
    3.7320   -2.5530    0.0000 N   0  0  0  0  0  0  0  0  0  0  0  0
    3.7320    1.4470    0.0000 C   0  0  3  0  0  0  0  0  0  0  0  0
    8.0622   -3.0530    0.0000 C   0  0  0  0  0  0  0  0  0  0  0  0
    2.8660    1.9470    0.0000 C   0  0  0  0  0  0  0  0  0  0  0  0
    8.0622   -4.0530    0.0000 C   0  0  0  0  0  0  0  0  0  0  0  0
    9.0084   -2.7482    0.0000 C   0  0  0  0  0  0  0  0  0  0  0  0
    3.7320    0.4470    0.0000 C   0  0  0  0  0  0  0  0  0  0  0  0
    6.3301   -3.0530    0.0000 C   0  0  0  0  0  0  0  0  0  0  0  0
    7.1962   -2.5530    0.0000 C   0  0  0  0  0  0  0  0  0  0  0  0
    2.8660    2.9470    0.0000 C   0  0  0  0  0  0  0  0  0  0  0  0
    7.1962   -4.5530    0.0000 C   0  0  0  0  0  0  0  0  0  0  0  0
    9.5920   -3.5530    0.0000 C   0  0  0  0  0  0  0  0  0  0  0  0
    5.4641   -2.5530    0.0000 C   0  0  0  0  0  0  0  0  0  0  0  0
    6.3301   -4.0530    0.0000 C   0  0  0  0  0  0  0  0  0  0  0  0
    9.3191   -1.7977    0.0000 C   0  0  0  0  0  0  0  0  0  0  0  0
    4.5981   -1.0530    0.0000 C   0  0  0  0  0  0  0  0  0  0  0  0
    5.4641   -1.5530    0.0000 C   0  0  0  0  0  0  0  0  0  0  0  0
   10.2976   -1.5915    0.0000 C   0  0  0  0  0  0  0  0  0  0  0  0
    2.0000    3.4470    0.0000 C   0  0  0  0  0  0  0  0  0  0  0  0
    3.7320    3.4470    0.0000 C   0  0  0  0  0  0  0  0  0  0  0  0
    4.5981   -3.0530    0.0000 C   0  0  0  0  0  0  0  0  0  0  0  0
    3.7320   -1.5530    0.0000 C   0  0  0  0  0  0  0  0  0  0  0  0
    2.0000    4.4470    0.0000 C   0  0  0  0  0  0  0  0  0  0  0  0
    3.7320    4.4470    0.0000 C   0  0  0  0  0  0  0  0  0  0  0  0
   11.0396   -2.2619    0.0000 C   0  0  0  0  0  0  0  0  0  0  0  0
    2.8660    4.9470    0.0000 C   0  0  0  0  0  0  0  0  0  0  0  0
   11.7002   -0.7849    0.0000 C   0  0  0  0  0  0  0  0  0  0  0  0
   11.9064   -1.7634    0.0000 C   0  0  0  0  0  0  0  0  0  0  0  0
    3.7320    2.0670    0.0000 H   0  0  0  0  0  0  0  0  0  0  0  0
    2.2554    2.0547    0.0000 H   0  0  0  0  0  0  0  0  0  0  0  0
    2.6540    1.3644    0.0000 H   0  0  0  0  0  0  0  0  0  0  0  0
    3.1215    0.5547    0.0000 H   0  0  0  0  0  0  0  0  0  0  0  0
    3.5200   -0.1356    0.0000 H   0  0  0  0  0  0  0  0  0  0  0  0
    7.1962   -1.9330    0.0000 H   0  0  0  0  0  0  0  0  0  0  0  0
    9.2010   -4.9470    0.0000 H   0  0  0  0  0  0  0  0  0  0  0  0
    7.1962   -5.1730    0.0000 H   0  0  0  0  0  0  0  0  0  0  0  0
    5.7932   -4.3630    0.0000 H   0  0  0  0  0  0  0  0  0  0  0  0
    8.9050   -1.3362    0.0000 H   0  0  0  0  0  0  0  0  0  0  0  0
    6.0010   -1.2430    0.0000 H   0  0  0  0  0  0  0  0  0  0  0  0
    5.1350    1.6370    0.0000 H   0  0  0  0  0  0  0  0  0  0  0  0
    4.5981    2.5670    0.0000 H   0  0  0  0  0  0  0  0  0  0  0  0
    1.4631    3.1370    0.0000 H   0  0  0  0  0  0  0  0  0  0  0  0
    4.2690    3.1370    0.0000 H   0  0  0  0  0  0  0  0  0  0  0  0
    4.5981   -3.6730    0.0000 H   0  0  0  0  0  0  0  0  0  0  0  0
    3.1951   -1.2430    0.0000 H   0  0  0  0  0  0  0  0  0  0  0  0
    1.4631    4.7570    0.0000 H   0  0  0  0  0  0  0  0  0  0  0  0
    4.2690    4.7570    0.0000 H   0  0  0  0  0  0  0  0  0  0  0  0
   10.3968   -0.1412    0.0000 H   0  0  0  0  0  0  0  0  0  0  0  0
   10.9737   -2.8784    0.0000 H   0  0  0  0  0  0  0  0  0  0  0  0
    2.8660    5.5670    0.0000 H   0  0  0  0  0  0  0  0  0  0  0  0
   12.1159   -0.3249    0.0000 H   0  0  0  0  0  0  0  0  0  0  0  0
   12.4724   -2.0166    0.0000 H   0  0  0  0  0  0  0  0  0  0  0  0
  1 12  1  0  0  0  0
  1 21  1  0  0  0  0
  2 17  2  0  0  0  0
  3 10  1  0  0  0  0
  3 17  1  0  0  0  0
  3 40  1  0  0  0  0
  4  7  1  0  0  0  0
  4 45  1  0  0  0  0
  4 46  1  0  0  0  0
  5 23  1  0  0  0  0
  5 32  1  0  0  0  0
  5 53  1  0  0  0  0
  6 26  2  0  0  0  0
  6 27  1  0  0  0  0
  7  9  1  0  0  0  0
  7 12  1  0  0  0  0
  7 34  1  0  0  0  0
  8 10  2  0  0  0  0
  8 11  1  0  0  0  0
  8 14  1  0  0  0  0
  9 15  1  0  0  0  0
  9 35  1  0  0  0  0
  9 36  1  0  0  0  0
 10 16  1  0  0  0  0
 11 17  1  0  0  0  0
 11 20  2  3  0  0  0
 12 37  1  0  0  0  0
 12 38  1  0  0  0  0
 13 14  2  0  0  0  0
 13 18  1  0  0  0  0
 13 19  1  0  0  0  0
 14 39  1  0  0  0  0
 15 24  2  0  0  0  0
 15 25  1  0  0  0  0
 16 19  2  0  0  0  0
 16 41  1  0  0  0  0
 18 22  2  0  0  0  0
 18 26  1  0  0  0  0
 19 42  1  0  0  0  0
 20 23  1  0  0  0  0
 20 43  1  0  0  0  0
 21 22  1  0  0  0  0
 21 27  2  0  0  0  0
 22 44  1  0  0  0  0
 23 30  2  0  0  0  0
 24 28  1  0  0  0  0
 24 47  1  0  0  0  0
 25 29  2  0  0  0  0
 25 48  1  0  0  0  0
 26 49  1  0  0  0  0
 27 50  1  0  0  0  0
 28 31  2  0  0  0  0
 28 51  1  0  0  0  0
 29 31  1  0  0  0  0
 29 52  1  0  0  0  0
 30 33  1  0  0  0  0
 30 54  1  0  0  0  0
 31 55  1  0  0  0  0
 32 33  2  0  0  0  0
 32 56  1  0  0  0  0
 33 57  1  0  0  0  0
M  END
> <PUBCHEM_COMPOUND_CID>
49830430

> <PUBCHEM_COMPOUND_CANONICALIZED>
1

> <PUBCHEM_CACTVS_COMPLEXITY>
692

> <PUBCHEM_CACTVS_HBOND_ACCEPTOR>
4

> <PUBCHEM_CACTVS_HBOND_DONOR>
3

> <PUBCHEM_CACTVS_ROTATABLE_BOND>
7

> <PUBCHEM_CACTVS_SUBSKEYS>
AAADceB7sAAAAAAAAAAAAAAAAAAAAWLAAAA8YIAAAAAAAFgB9AAAHgAQAAAADCzhngY8xpLJlACoAzV3VASCiCAxYiAI2aE/bNgOJvLEtZuHOCjk1BHY6Ye8yOCOiAACAAACAAAQAAQAAAQAAAAAAAAAAA==

> <PUBCHEM_IUPAC_OPENEYE_NAME>
5-[5-(2-amino-3-phenyl-propoxy)-3-pyridyl]-3-(1H-pyrrol-2-ylmethylene)indolin-2-one

> <PUBCHEM_IUPAC_CAS_NAME>
5-[5-(2-amino-3-phenylpropoxy)-3-pyridinyl]-3-(1H-pyrrol-2-ylmethylidene)-1H-indol-2-one

> <PUBCHEM_IUPAC_NAME_MARKUP>
5-[5-(2-amino-3-phenylpropoxy)pyridin-3-yl]-3-(1<I>H</I>-pyrrol-2-ylmethylidene)-1<I>H</I>-indol-2-one

> <PUBCHEM_IUPAC_NAME>
5-[5-(2-amino-3-phenylpropoxy)pyridin-3-yl]-3-(1H-pyrrol-2-ylmethylidene)-1H-indol-2-one

> <PUBCHEM_IUPAC_SYSTEMATIC_NAME>
5-[5-(2-azanyl-3-phenyl-propoxy)pyridin-3-yl]-3-(1H-pyrrol-2-ylmethylidene)-1H-indol-2-one

> <PUBCHEM_IUPAC_TRADITIONAL_NAME>
5-[5-(2-amino-3-phenyl-propoxy)-3-pyridyl]-3-(1H-pyrrol-2-ylmethylene)oxindole

> <PUBCHEM_IUPAC_INCHI>
InChI=1S/C27H24N4O2/c28-21(11-18-5-2-1-3-6-18)17-33-23-12-20(15-29-16-23)19-8-9-26-24(13-19)25(27(32)31-26)14-22-7-4-10-30-22/h1-10,12-16,21,30H,11,17,28H2,(H,31,32)

> <PUBCHEM_IUPAC_INCHIKEY>
NWMPVMMGSHXANZ-UHFFFAOYSA-N

> <PUBCHEM_XLOGP3_AA>
3.3

> <PUBCHEM_EXACT_MASS>
436.18992602

> <PUBCHEM_MOLECULAR_FORMULA>
C27H24N4O2

> <PUBCHEM_MOLECULAR_WEIGHT>
436.5

> <PUBCHEM_SMILES>
C1=CC=C(C=C1)CC(COC2=CN=CC(=C2)C3=CC4=C(C=C3)NC(=O)C4=CC5=CC=CN5)N

> <PUBCHEM_OPENEYE_CAN_SMILES>
C1=CC=C(C=C1)CC(COC2=CN=CC(=C2)C3=CC4=C(C=C3)NC(=O)C4=CC5=CC=CN5)N

> <PUBCHEM_OPENEYE_ISO_SMILES>
C1=CC=C(C=C1)CC(COC2=CN=CC(=C2)C3=CC4=C(C=C3)NC(=O)C4=CC5=CC=CN5)N

> <PUBCHEM_CACTVS_TPSA>
93

> <PUBCHEM_MONOISOTOPIC_WEIGHT>
436.18992602

> <PUBCHEM_TOTAL_CHARGE>
0

> <PUBCHEM_HEAVY_ATOM_COUNT>
33

> <PUBCHEM_ATOM_DEF_STEREO_COUNT>
0

> <PUBCHEM_ATOM_UDEF_STEREO_COUNT>
1

> <PUBCHEM_BOND_DEF_STEREO_COUNT>
0

> <PUBCHEM_BOND_UDEF_STEREO_COUNT>
1

> <PUBCHEM_ISOTOPIC_ATOM_COUNT>
0

> <PUBCHEM_COMPONENT_COUNT>
1

> <PUBCHEM_CACTVS_TAUTO_COUNT>
-1

> <PUBCHEM_COORDINATE_TYPE>
1
5
255

> <PUBCHEM_BONDANNOTATIONS>
10  16  8
11  20  1
13  14  8
13  19  8
15  24  8
15  25  8
16  19  8
18  22  8
18  26  8
21  22  8
21  27  8
23  30  8
24  28  8
25  29  8
28  31  8
29  31  8
30  33  8
32  33  8
7  4  3
5  23  8
5  32  8
6  26  8
6  27  8
8  10  8
8  14  8

$$$$
