49792852
  -OEChem-03202500292D

 65 69  0     0  0  0  0  0  0999 V2000
    9.0040   -2.3012    0.0000 F   0  0  0  0  0  0  0  0  0  0  0  0
   10.3687   -1.9299    0.0000 F   0  0  0  0  0  0  0  0  0  0  0  0
    9.9974   -0.5653    0.0000 F   0  0  0  0  0  0  0  0  0  0  0  0
    8.6328   -0.9366    0.0000 O   0  0  0  0  0  0  0  0  0  0  0  0
    2.6067   -0.6006    0.0000 O   0  0  0  0  0  0  0  0  0  0  0  0
    4.5637   -6.0121    0.0000 O   0  0  0  0  0  0  0  0  0  0  0  0
    8.6174    3.0634    0.0000 N   0  0  0  0  0  0  0  0  0  0  0  0
    8.6096    5.0634    0.0000 N   0  0  0  0  0  0  0  0  0  0  0  0
    4.2065   -2.7078    0.0000 N   0  0  0  0  0  0  0  0  0  0  0  0
    3.6229   -3.5126    0.0000 N   0  0  0  0  0  0  0  0  0  0  0  0
    6.0027   -1.4710    0.0000 N   0  0  0  0  0  0  0  0  0  0  0  0
    6.8969    0.0567    0.0000 N   0  0  0  0  0  0  0  0  0  0  0  0
    7.8028   -1.4641    0.0000 N   0  0  0  0  0  0  0  0  0  0  0  0
    2.9173   -5.4740    0.0000 N   0  0  0  0  0  0  0  0  0  0  0  0
    7.7494    3.5600    0.0000 C   0  0  0  0  0  0  0  0  0  0  0  0
    9.4814    3.5667    0.0000 C   0  0  0  0  0  0  0  0  0  0  0  0
    7.7456    4.5600    0.0000 C   0  0  0  0  0  0  0  0  0  0  0  0
    9.4776    4.5667    0.0000 C   0  0  0  0  0  0  0  0  0  0  0  0
    5.1527   -4.0126    0.0000 C   0  0  0  0  0  0  0  0  0  0  0  0
    6.0188   -4.5126    0.0000 C   0  0  0  0  0  0  0  0  0  0  0  0
    5.1527   -3.0126    0.0000 C   0  0  0  0  0  0  0  0  0  0  0  0
    6.8848   -4.0126    0.0000 C   0  0  0  0  0  0  0  0  0  0  0  0
    8.6212    2.0634    0.0000 C   0  0  0  0  0  0  0  0  0  0  0  0
    6.0188   -2.5126    0.0000 C   0  0  0  0  0  0  0  0  0  0  0  0
    6.8848   -3.0126    0.0000 C   0  0  0  0  0  0  0  0  0  0  0  0
    4.2065   -4.3173    0.0000 C   0  0  0  0  0  0  0  0  0  0  0  0
    8.6058    6.0633    0.0000 C   0  0  0  0  0  0  0  0  0  0  0  0
    7.7571    1.5600    0.0000 C   0  0  0  0  0  0  0  0  0  0  0  0
    3.8958   -1.7573    0.0000 C   0  0  0  0  0  0  0  0  0  0  0  0
    9.4892    1.5667    0.0000 C   0  0  0  0  0  0  0  0  0  0  0  0
    7.7610    0.5600    0.0000 C   0  0  0  0  0  0  0  0  0  0  0  0
    7.7948   -2.5057    0.0000 C   0  0  0  0  0  0  0  0  0  0  0  0
    6.9007   -0.9433    0.0000 C   0  0  0  0  0  0  0  0  0  0  0  0
    8.6289    0.0634    0.0000 C   0  0  0  0  0  0  0  0  0  0  0  0
    9.4930    0.5667    0.0000 C   0  0  0  0  0  0  0  0  0  0  0  0
    3.8958   -5.2678    0.0000 C   0  0  0  0  0  0  0  0  0  0  0  0
    2.9173   -1.5511    0.0000 C   0  0  0  0  0  0  0  0  0  0  0  0
    9.5007   -1.4333    0.0000 C   0  0  0  0  0  0  0  0  0  0  0  0
    7.1384    3.6653    0.0000 H   0  0  0  0  0  0  0  0  0  0  0  0
    7.5396    2.9766    0.0000 H   0  0  0  0  0  0  0  0  0  0  0  0
    9.6957    2.9849    0.0000 H   0  0  0  0  0  0  0  0  0  0  0  0
   10.0916    3.6767    0.0000 H   0  0  0  0  0  0  0  0  0  0  0  0
    7.5312    5.1418    0.0000 H   0  0  0  0  0  0  0  0  0  0  0  0
    7.1354    4.4500    0.0000 H   0  0  0  0  0  0  0  0  0  0  0  0
   10.0886    4.4614    0.0000 H   0  0  0  0  0  0  0  0  0  0  0  0
    9.6874    5.1501    0.0000 H   0  0  0  0  0  0  0  0  0  0  0  0
    5.6202   -4.9875    0.0000 H   0  0  0  0  0  0  0  0  0  0  0  0
    6.4173   -4.9875    0.0000 H   0  0  0  0  0  0  0  0  0  0  0  0
    7.0968   -4.5952    0.0000 H   0  0  0  0  0  0  0  0  0  0  0  0
    7.4954   -3.9049    0.0000 H   0  0  0  0  0  0  0  0  0  0  0  0
    9.2258    6.0657    0.0000 H   0  0  0  0  0  0  0  0  0  0  0  0
    8.6034    6.6833    0.0000 H   0  0  0  0  0  0  0  0  0  0  0  0
    7.9858    6.0610    0.0000 H   0  0  0  0  0  0  0  0  0  0  0  0
    4.5097   -1.6699    0.0000 H   0  0  0  0  0  0  0  0  0  0  0  0
    3.9164   -1.1376    0.0000 H   0  0  0  0  0  0  0  0  0  0  0  0
    7.2190    1.8680    0.0000 H   0  0  0  0  0  0  0  0  0  0  0  0
   10.0249    1.8788    0.0000 H   0  0  0  0  0  0  0  0  0  0  0  0
    8.3281   -2.8219    0.0000 H   0  0  0  0  0  0  0  0  0  0  0  0
    6.3588    0.3646    0.0000 H   0  0  0  0  0  0  0  0  0  0  0  0
   10.0311    0.2588    0.0000 H   0  0  0  0  0  0  0  0  0  0  0  0
    2.3035   -1.6384    0.0000 H   0  0  0  0  0  0  0  0  0  0  0  0
    2.8968   -2.1707    0.0000 H   0  0  0  0  0  0  0  0  0  0  0  0
    2.7247   -6.0633    0.0000 H   0  0  0  0  0  0  0  0  0  0  0  0
    2.5033   -5.0126    0.0000 H   0  0  0  0  0  0  0  0  0  0  0  0
    2.0000   -0.4727    0.0000 H   0  0  0  0  0  0  0  0  0  0  0  0
  1 38  1  0  0  0  0
  2 38  1  0  0  0  0
  3 38  1  0  0  0  0
  4 34  1  0  0  0  0
  4 38  1  0  0  0  0
  5 37  1  0  0  0  0
  5 65  1  0  0  0  0
  6 36  2  0  0  0  0
  7 15  1  0  0  0  0
  7 16  1  0  0  0  0
  7 23  1  0  0  0  0
  8 17  1  0  0  0  0
  8 18  1  0  0  0  0
  8 27  1  0  0  0  0
  9 10  1  0  0  0  0
  9 21  1  0  0  0  0
  9 29  1  0  0  0  0
 10 26  2  0  0  0  0
 11 24  2  0  0  0  0
 11 33  1  0  0  0  0
 12 31  1  0  0  0  0
 12 33  1  0  0  0  0
 12 59  1  0  0  0  0
 13 32  1  0  0  0  0
 13 33  2  0  0  0  0
 14 36  1  0  0  0  0
 14 63  1  0  0  0  0
 14 64  1  0  0  0  0
 15 17  1  0  0  0  0
 15 39  1  0  0  0  0
 15 40  1  0  0  0  0
 16 18  1  0  0  0  0
 16 41  1  0  0  0  0
 16 42  1  0  0  0  0
 17 43  1  0  0  0  0
 17 44  1  0  0  0  0
 18 45  1  0  0  0  0
 18 46  1  0  0  0  0
 19 20  1  0  0  0  0
 19 21  2  0  0  0  0
 19 26  1  0  0  0  0
 20 22  1  0  0  0  0
 20 47  1  0  0  0  0
 20 48  1  0  0  0  0
 21 24  1  0  0  0  0
 22 25  1  0  0  0  0
 22 49  1  0  0  0  0
 22 50  1  0  0  0  0
 23 28  2  0  0  0  0
 23 30  1  0  0  0  0
 24 25  1  0  0  0  0
 25 32  2  0  0  0  0
 26 36  1  0  0  0  0
 27 51  1  0  0  0  0
 27 52  1  0  0  0  0
 27 53  1  0  0  0  0
 28 31  1  0  0  0  0
 28 56  1  0  0  0  0
 29 37  1  0  0  0  0
 29 54  1  0  0  0  0
 29 55  1  0  0  0  0
 30 35  2  0  0  0  0
 30 57  1  0  0  0  0
 31 34  2  0  0  0  0
 32 58  1  0  0  0  0
 34 35  1  0  0  0  0
 35 60  1  0  0  0  0
 37 61  1  0  0  0  0
 37 62  1  0  0  0  0
M  END
> <PUBCHEM_COMPOUND_CID>
49792852

> <PUBCHEM_COMPOUND_CANONICALIZED>
1

> <PUBCHEM_CACTVS_COMPLEXITY>
817

> <PUBCHEM_CACTVS_HBOND_ACCEPTOR>
12

> <PUBCHEM_CACTVS_HBOND_DONOR>
3

> <PUBCHEM_CACTVS_ROTATABLE_BOND>
7

> <PUBCHEM_CACTVS_SUBSKEYS>
AAADceB78YAAAAAAAAAAAAAAAAAAAWAAAAA8eIEAAAAAAFix8AAAHwAYCAAADAzhnhY/1pfIFgCqAzV3dACSjCk3oqAZ2CGvbNiOfrLE/duVtShs2BPY6Se8ycCeAEAAAAQAEACAgACACAQgQAAAAAAAAA==

> <PUBCHEM_IUPAC_OPENEYE_NAME>
1-(2-hydroxyethyl)-8-[5-(4-methylpiperazin-1-yl)-2-(trifluoromethoxy)anilino]-4,5-dihydropyrazolo[4,3-h]quinazoline-3-carboxamide

> <PUBCHEM_IUPAC_CAS_NAME>
1-(2-hydroxyethyl)-8-[5-(4-methyl-1-piperazinyl)-2-(trifluoromethoxy)anilino]-4,5-dihydropyrazolo[4,3-h]quinazoline-3-carboxamide

> <PUBCHEM_IUPAC_NAME_MARKUP>
1-(2-hydroxyethyl)-8-[5-(4-methylpiperazin-1-yl)-2-(trifluoromethoxy)anilino]-4,5-dihydropyrazolo[4,3-h]quinazoline-3-carboxamide

> <PUBCHEM_IUPAC_NAME>
1-(2-hydroxyethyl)-8-[5-(4-methylpiperazin-1-yl)-2-(trifluoromethoxy)anilino]-4,5-dihydropyrazolo[4,3-h]quinazoline-3-carboxamide

> <PUBCHEM_IUPAC_SYSTEMATIC_NAME>
1-(2-hydroxyethyl)-8-[[5-(4-methylpiperazin-1-yl)-2-(trifluoromethyloxy)phenyl]amino]-4,5-dihydropyrazolo[4,3-h]quinazoline-3-carboxamide

> <PUBCHEM_IUPAC_TRADITIONAL_NAME>
1-(2-hydroxyethyl)-8-[5-(4-methylpiperazino)-2-(trifluoromethoxy)anilino]-4,5-dihydropyrazolo[4,3-h]quinazoline-3-carboxamide

> <PUBCHEM_IUPAC_INCHI>
InChI=1S/C24H27F3N8O3/c1-33-6-8-34(9-7-33)15-3-5-18(38-24(25,26)27)17(12-15)30-23-29-13-14-2-4-16-20(22(28)37)32-35(10-11-36)21(16)19(14)31-23/h3,5,12-13,36H,2,4,6-11H2,1H3,(H2,28,37)(H,29,30,31)

> <PUBCHEM_IUPAC_INCHIKEY>
QHLVBNKYJGBCQJ-UHFFFAOYSA-N

> <PUBCHEM_XLOGP3_AA>
2

> <PUBCHEM_EXACT_MASS>
532.21582124

> <PUBCHEM_MOLECULAR_FORMULA>
C24H27F3N8O3

> <PUBCHEM_MOLECULAR_WEIGHT>
532.5

> <PUBCHEM_SMILES>
CN1CCN(CC1)C2=CC(=C(C=C2)OC(F)(F)F)NC3=NC=C4CCC5=C(C4=N3)N(N=C5C(=O)N)CCO

> <PUBCHEM_OPENEYE_CAN_SMILES>
CN1CCN(CC1)C2=CC(=C(C=C2)OC(F)(F)F)NC3=NC=C4CCC5=C(C4=N3)N(N=C5C(=O)N)CCO

> <PUBCHEM_OPENEYE_ISO_SMILES>
CN1CCN(CC1)C2=CC(=C(C=C2)OC(F)(F)F)NC3=NC=C4CCC5=C(C4=N3)N(N=C5C(=O)N)CCO

> <PUBCHEM_CACTVS_TPSA>
135

> <PUBCHEM_MONOISOTOPIC_WEIGHT>
532.21582124

> <PUBCHEM_TOTAL_CHARGE>
0

> <PUBCHEM_HEAVY_ATOM_COUNT>
38

> <PUBCHEM_ATOM_DEF_STEREO_COUNT>
0

> <PUBCHEM_ATOM_UDEF_STEREO_COUNT>
0

> <PUBCHEM_BOND_DEF_STEREO_COUNT>
0

> <PUBCHEM_BOND_UDEF_STEREO_COUNT>
0

> <PUBCHEM_ISOTOPIC_ATOM_COUNT>
0

> <PUBCHEM_COMPONENT_COUNT>
1

> <PUBCHEM_CACTVS_TAUTO_COUNT>
-1

> <PUBCHEM_COORDINATE_TYPE>
1
5
255

> <PUBCHEM_BONDANNOTATIONS>
10  26  8
11  24  8
11  33  8
13  32  8
13  33  8
19  21  8
19  26  8
23  28  8
23  30  8
24  25  8
25  32  8
28  31  8
30  35  8
31  34  8
34  35  8
9  10  8
9  21  8

$$$$
