44412343
  -OEChem-03202504422D

 41 43  0     0  0  0  0  0  0999 V2000
    3.9639    3.5346    0.0000 O   0  0  0  0  0  0  0  0  0  0  0  0
    6.2619   -2.3918    0.0000 O   0  0  0  0  0  0  0  0  0  0  0  0
   10.7619   -3.2579    0.0000 O   0  5  0  0  0  0  0  0  0  0  0  0
    9.2619   -4.1239    0.0000 O   0  0  0  0  0  0  0  0  0  0  0  0
    4.6783    0.1449    0.0000 N   0  0  0  0  0  0  0  0  0  0  0  0
    4.6783   -1.4645    0.0000 N   0  0  0  0  0  0  0  0  0  0  0  0
    6.2619   -0.6598    0.0000 N   0  0  0  0  0  0  0  0  0  0  0  0
    9.7619   -3.2579    0.0000 N   0  3  0  0  0  0  0  0  0  0  0  0
    4.9889    1.0954    0.0000 C   0  0  0  0  0  0  0  0  0  0  0  0
    3.7320   -0.1598    0.0000 C   0  0  0  0  0  0  0  0  0  0  0  0
    5.2619   -0.6598    0.0000 C   0  0  0  0  0  0  0  0  0  0  0  0
    4.3211    1.8398    0.0000 C   0  0  0  0  0  0  0  0  0  0  0  0
    3.7320   -1.1598    0.0000 C   0  0  0  0  0  0  0  0  0  0  0  0
    2.8660    0.3402    0.0000 C   0  0  0  0  0  0  0  0  0  0  0  0
    4.6318    2.7903    0.0000 C   0  0  0  0  0  0  0  0  0  0  0  0
    2.8660   -1.6598    0.0000 C   0  0  0  0  0  0  0  0  0  0  0  0
    2.0000   -0.1598    0.0000 C   0  0  0  0  0  0  0  0  0  0  0  0
    2.0000   -1.1598    0.0000 C   0  0  0  0  0  0  0  0  0  0  0  0
    6.7619   -1.5258    0.0000 C   0  0  0  0  0  0  0  0  0  0  0  0
    7.7619   -1.5258    0.0000 C   0  0  0  0  0  0  0  0  0  0  0  0
    8.2619   -2.3918    0.0000 C   0  0  0  0  0  0  0  0  0  0  0  0
    8.2619   -0.6598    0.0000 C   0  0  0  0  0  0  0  0  0  0  0  0
    9.2619   -2.3918    0.0000 C   0  0  0  0  0  0  0  0  0  0  0  0
    9.2619   -0.6598    0.0000 C   0  0  0  0  0  0  0  0  0  0  0  0
    9.7619   -1.5258    0.0000 C   0  0  0  0  0  0  0  0  0  0  0  0
    5.5359    0.8034    0.0000 H   0  0  0  0  0  0  0  0  0  0  0  0
    5.3715    1.5834    0.0000 H   0  0  0  0  0  0  0  0  0  0  0  0
    3.7742    2.1318    0.0000 H   0  0  0  0  0  0  0  0  0  0  0  0
    3.9385    1.3518    0.0000 H   0  0  0  0  0  0  0  0  0  0  0  0
    2.8660    0.9602    0.0000 H   0  0  0  0  0  0  0  0  0  0  0  0
    5.1787    2.4983    0.0000 H   0  0  0  0  0  0  0  0  0  0  0  0
    5.0143    3.2782    0.0000 H   0  0  0  0  0  0  0  0  0  0  0  0
    6.5719   -0.1229    0.0000 H   0  0  0  0  0  0  0  0  0  0  0  0
    2.8660   -2.2798    0.0000 H   0  0  0  0  0  0  0  0  0  0  0  0
    1.4631    0.1502    0.0000 H   0  0  0  0  0  0  0  0  0  0  0  0
    1.4631   -1.4698    0.0000 H   0  0  0  0  0  0  0  0  0  0  0  0
    7.9519   -2.9288    0.0000 H   0  0  0  0  0  0  0  0  0  0  0  0
    7.9519   -0.1229    0.0000 H   0  0  0  0  0  0  0  0  0  0  0  0
    4.1565    4.1239    0.0000 H   0  0  0  0  0  0  0  0  0  0  0  0
    9.5719   -0.1229    0.0000 H   0  0  0  0  0  0  0  0  0  0  0  0
   10.3819   -1.5258    0.0000 H   0  0  0  0  0  0  0  0  0  0  0  0
  1 15  1  0  0  0  0
  1 39  1  0  0  0  0
  2 19  2  0  0  0  0
  3  8  1  0  0  0  0
  4  8  2  0  0  0  0
  5  9  1  0  0  0  0
  5 10  1  0  0  0  0
  5 11  1  0  0  0  0
  6 11  2  0  0  0  0
  6 13  1  0  0  0  0
  7 11  1  0  0  0  0
  7 19  1  0  0  0  0
  7 33  1  0  0  0  0
  8 23  1  0  0  0  0
  9 12  1  0  0  0  0
  9 26  1  0  0  0  0
  9 27  1  0  0  0  0
 10 13  1  0  0  0  0
 10 14  2  0  0  0  0
 12 15  1  0  0  0  0
 12 28  1  0  0  0  0
 12 29  1  0  0  0  0
 13 16  2  0  0  0  0
 14 17  1  0  0  0  0
 14 30  1  0  0  0  0
 15 31  1  0  0  0  0
 15 32  1  0  0  0  0
 16 18  1  0  0  0  0
 16 34  1  0  0  0  0
 17 18  2  0  0  0  0
 17 35  1  0  0  0  0
 18 36  1  0  0  0  0
 19 20  1  0  0  0  0
 20 21  2  0  0  0  0
 20 22  1  0  0  0  0
 21 23  1  0  0  0  0
 21 37  1  0  0  0  0
 22 24  2  0  0  0  0
 22 38  1  0  0  0  0
 23 25  2  0  0  0  0
 24 25  1  0  0  0  0
 24 40  1  0  0  0  0
 25 41  1  0  0  0  0
M  CHG  2   3  -1   8   1
M  END
> <PUBCHEM_COMPOUND_CID>
44412343

> <PUBCHEM_COMPOUND_CANONICALIZED>
1

> <PUBCHEM_CACTVS_COMPLEXITY>
484

> <PUBCHEM_CACTVS_HBOND_ACCEPTOR>
5

> <PUBCHEM_CACTVS_HBOND_DONOR>
2

> <PUBCHEM_CACTVS_ROTATABLE_BOND>
5

> <PUBCHEM_CACTVS_SUBSKEYS>
AAADceB7uAAAAAAAAAAAAAAAAAAAAWAAAAAwYAAAAAAAAFgB9AAAHgAUCAAADAjhngYx0LfcUgCpAyVydwCCgC0lEqAp2CE4dNqIeLLAnZGUYQhqgQLIyacciACOAAAAQAAAACAAAACAAAAAQAAAAAAAAA==

> <PUBCHEM_IUPAC_OPENEYE_NAME>
N-[1-(3-hydroxypropyl)benzimidazol-2-yl]-3-nitro-benzamide

> <PUBCHEM_IUPAC_CAS_NAME>
N-[1-(3-hydroxypropyl)-2-benzimidazolyl]-3-nitrobenzamide

> <PUBCHEM_IUPAC_NAME_MARKUP>
<I>N</I>-[1-(3-hydroxypropyl)benzimidazol-2-yl]-3-nitrobenzamide

> <PUBCHEM_IUPAC_NAME>
N-[1-(3-hydroxypropyl)benzimidazol-2-yl]-3-nitrobenzamide

> <PUBCHEM_IUPAC_SYSTEMATIC_NAME>
3-nitro-N-[1-(3-oxidanylpropyl)benzimidazol-2-yl]benzamide

> <PUBCHEM_IUPAC_TRADITIONAL_NAME>
N-[1-(3-hydroxypropyl)benzimidazol-2-yl]-3-nitro-benzamide

> <PUBCHEM_IUPAC_INCHI>
InChI=1S/C17H16N4O4/c22-10-4-9-20-15-8-2-1-7-14(15)18-17(20)19-16(23)12-5-3-6-13(11-12)21(24)25/h1-3,5-8,11,22H,4,9-10H2,(H,18,19,23)

> <PUBCHEM_IUPAC_INCHIKEY>
VBIYDORVDCFKHM-UHFFFAOYSA-N

> <PUBCHEM_XLOGP3_AA>
2

> <PUBCHEM_EXACT_MASS>
340.11715500

> <PUBCHEM_MOLECULAR_FORMULA>
C17H16N4O4

> <PUBCHEM_MOLECULAR_WEIGHT>
340.33

> <PUBCHEM_SMILES>
C1=CC=C2C(=C1)N=C(N2CCCO)NC(=O)C3=CC(=CC=C3)[N+](=O)[O-]

> <PUBCHEM_OPENEYE_CAN_SMILES>
C1=CC=C2C(=C1)N=C(N2CCCO)NC(=O)C3=CC(=CC=C3)[N+](=O)[O-]

> <PUBCHEM_OPENEYE_ISO_SMILES>
C1=CC=C2C(=C1)N=C(N2CCCO)NC(=O)C3=CC(=CC=C3)[N+](=O)[O-]

> <PUBCHEM_CACTVS_TPSA>
113

> <PUBCHEM_MONOISOTOPIC_WEIGHT>
340.11715500

> <PUBCHEM_TOTAL_CHARGE>
0

> <PUBCHEM_HEAVY_ATOM_COUNT>
25

> <PUBCHEM_ATOM_DEF_STEREO_COUNT>
0

> <PUBCHEM_ATOM_UDEF_STEREO_COUNT>
0

> <PUBCHEM_BOND_DEF_STEREO_COUNT>
0

> <PUBCHEM_BOND_UDEF_STEREO_COUNT>
0

> <PUBCHEM_ISOTOPIC_ATOM_COUNT>
0

> <PUBCHEM_COMPONENT_COUNT>
1

> <PUBCHEM_CACTVS_TAUTO_COUNT>
-1

> <PUBCHEM_COORDINATE_TYPE>
1
5
255

> <PUBCHEM_BONDANNOTATIONS>
10  13  8
10  14  8
13  16  8
14  17  8
16  18  8
17  18  8
20  21  8
20  22  8
21  23  8
22  24  8
23  25  8
24  25  8
5  10  8
5  11  8
6  11  8
6  13  8

$$$$
