57325421
  -OEChem-03202504352D

 73 78  0     1  0  0  0  0  0999 V2000
   13.3265    0.6257    0.0000 Cl  0  0  0  0  0  0  0  0  0  0  0  0
   11.2322   -2.7144    0.0000 O   0  0  0  0  0  0  0  0  0  0  0  0
    2.0000    1.5882    0.0000 O   0  0  0  0  0  0  0  0  0  0  0  0
    8.0730    3.6228    0.0000 O   0  0  0  0  0  0  0  0  0  0  0  0
   11.5983   -0.3810    0.0000 N   0  0  0  0  0  0  0  0  0  0  0  0
   12.7355   -3.5746    0.0000 N   0  0  0  0  0  0  0  0  0  0  0  0
    4.0000    1.5882    0.0000 N   0  0  0  0  0  0  0  0  0  0  0  0
   10.7265    1.1157    0.0000 N   0  0  0  0  0  0  0  0  0  0  0  0
    9.8547    2.6123    0.0000 N   0  0  0  0  0  0  0  0  0  0  0  0
   11.5868    2.6190    0.0000 N   0  0  0  0  0  0  0  0  0  0  0  0
   13.9291   -0.5696    0.0000 C   0  0  2  0  0  0  0  0  0  0  0  0
   14.6977   -1.2094    0.0000 C   0  0  1  0  0  0  0  0  0  0  0  0
   12.4663   -0.8776    0.0000 C   0  0  2  0  0  0  0  0  0  0  0  0
   12.7288   -1.8426    0.0000 C   0  0  1  0  0  0  0  0  0  0  0  0
   14.6626   -2.4370    0.0000 C   0  0  0  0  0  0  0  0  0  0  0  0
   14.7785    0.6529    0.0000 C   0  0  0  0  0  0  0  0  0  0  0  0
   15.5470    0.0131    0.0000 C   0  0  0  0  0  0  0  0  0  0  0  0
   12.2322   -2.7105    0.0000 C   0  0  0  0  0  0  0  0  0  0  0  0
   11.5945    0.6190    0.0000 C   0  0  0  0  0  0  0  0  0  0  0  0
    5.0000    1.5882    0.0000 C   0  0  2  0  0  0  0  0  0  0  0  0
    5.4339    2.4891    0.0000 C   0  0  0  0  0  0  0  0  0  0  0  0
    5.4339    0.6872    0.0000 C   0  0  0  0  0  0  0  0  0  0  0  0
    6.4088    2.7117    0.0000 C   0  0  0  0  0  0  0  0  0  0  0  0
    6.4088    0.4647    0.0000 C   0  0  0  0  0  0  0  0  0  0  0  0
   12.4586    1.1224    0.0000 C   0  0  0  0  0  0  0  0  0  0  0  0
    7.1906    2.0882    0.0000 C   0  0  0  0  0  0  0  0  0  0  0  0
    7.1906    1.0882    0.0000 C   0  0  0  0  0  0  0  0  0  0  0  0
    3.5000    2.4542    0.0000 C   0  0  0  0  0  0  0  0  0  0  0  0
    3.5000    0.7221    0.0000 C   0  0  0  0  0  0  0  0  0  0  0  0
    2.5000    2.4542    0.0000 C   0  0  0  0  0  0  0  0  0  0  0  0
    2.5000    0.7221    0.0000 C   0  0  0  0  0  0  0  0  0  0  0  0
    8.0846    2.6228    0.0000 C   0  0  0  0  0  0  0  0  0  0  0  0
   10.7227    2.1157    0.0000 C   0  0  0  0  0  0  0  0  0  0  0  0
    8.9906    2.1090    0.0000 C   0  0  0  0  0  0  0  0  0  0  0  0
    8.0846    0.5535    0.0000 C   0  0  0  0  0  0  0  0  0  0  0  0
   12.4547    2.1223    0.0000 C   0  0  0  0  0  0  0  0  0  0  0  0
    8.9906    1.0674    0.0000 C   0  0  0  0  0  0  0  0  0  0  0  0
    7.2013    4.1127    0.0000 C   0  0  0  0  0  0  0  0  0  0  0  0
   13.2759   -0.0257    0.0000 H   0  0  0  0  0  0  0  0  0  0  0  0
   15.3509   -1.7533    0.0000 H   0  0  0  0  0  0  0  0  0  0  0  0
   12.5627   -0.2652    0.0000 H   0  0  0  0  0  0  0  0  0  0  0  0
   13.1192   -2.3242    0.0000 H   0  0  0  0  0  0  0  0  0  0  0  0
   14.2147   -2.8657    0.0000 H   0  0  0  0  0  0  0  0  0  0  0  0
   15.2292   -2.6886    0.0000 H   0  0  0  0  0  0  0  0  0  0  0  0
   14.6953    1.2673    0.0000 H   0  0  0  0  0  0  0  0  0  0  0  0
   16.1614    0.0963    0.0000 H   0  0  0  0  0  0  0  0  0  0  0  0
   11.0626   -0.6930    0.0000 H   0  0  0  0  0  0  0  0  0  0  0  0
   12.4276   -4.1127    0.0000 H   0  0  0  0  0  0  0  0  0  0  0  0
   13.3555   -3.5722    0.0000 H   0  0  0  0  0  0  0  0  0  0  0  0
    4.6701    2.1131    0.0000 H   0  0  0  0  0  0  0  0  0  0  0  0
    5.4339    3.1091    0.0000 H   0  0  0  0  0  0  0  0  0  0  0  0
    4.8294    2.6271    0.0000 H   0  0  0  0  0  0  0  0  0  0  0  0
    4.8294    0.5492    0.0000 H   0  0  0  0  0  0  0  0  0  0  0  0
    5.4339    0.0672    0.0000 H   0  0  0  0  0  0  0  0  0  0  0  0
    6.8936    3.0982    0.0000 H   0  0  0  0  0  0  0  0  0  0  0  0
    6.1398    3.2703    0.0000 H   0  0  0  0  0  0  0  0  0  0  0  0
    6.1398   -0.0939    0.0000 H   0  0  0  0  0  0  0  0  0  0  0  0
    6.8936    0.0781    0.0000 H   0  0  0  0  0  0  0  0  0  0  0  0
    4.0826    2.6662    0.0000 H   0  0  0  0  0  0  0  0  0  0  0  0
    3.3923    3.0648    0.0000 H   0  0  0  0  0  0  0  0  0  0  0  0
    3.3923    0.1116    0.0000 H   0  0  0  0  0  0  0  0  0  0  0  0
    4.0826    0.5101    0.0000 H   0  0  0  0  0  0  0  0  0  0  0  0
    2.6077    3.0648    0.0000 H   0  0  0  0  0  0  0  0  0  0  0  0
    1.9174    2.6662    0.0000 H   0  0  0  0  0  0  0  0  0  0  0  0
    1.9174    0.5101    0.0000 H   0  0  0  0  0  0  0  0  0  0  0  0
    2.6077    0.1116    0.0000 H   0  0  0  0  0  0  0  0  0  0  0  0
    8.0774   -0.0664    0.0000 H   0  0  0  0  0  0  0  0  0  0  0  0
   12.9905    2.4344    0.0000 H   0  0  0  0  0  0  0  0  0  0  0  0
    9.8524    3.2323    0.0000 H   0  0  0  0  0  0  0  0  0  0  0  0
    9.5264    0.7553    0.0000 H   0  0  0  0  0  0  0  0  0  0  0  0
    7.5050    4.6532    0.0000 H   0  0  0  0  0  0  0  0  0  0  0  0
    6.6608    4.4165    0.0000 H   0  0  0  0  0  0  0  0  0  0  0  0
    6.8975    3.5722    0.0000 H   0  0  0  0  0  0  0  0  0  0  0  0
  1 25  1  0  0  0  0
  2 18  2  0  0  0  0
  3 30  1  0  0  0  0
  3 31  1  0  0  0  0
  4 32  1  0  0  0  0
  4 38  1  0  0  0  0
 13  5  1  6  0  0  0
  5 19  1  0  0  0  0
  5 47  1  0  0  0  0
  6 18  1  0  0  0  0
  6 48  1  0  0  0  0
  6 49  1  0  0  0  0
 20  7  1  6  0  0  0
  7 28  1  0  0  0  0
  7 29  1  0  0  0  0
  8 19  2  0  0  0  0
  8 33  1  0  0  0  0
  9 33  1  0  0  0  0
  9 34  1  0  0  0  0
  9 69  1  0  0  0  0
 10 33  2  0  0  0  0
 10 36  1  0  0  0  0
 11 13  1  0  0  0  0
 11 15  1  0  0  0  0
 11 16  1  0  0  0  0
 11 39  1  6  0  0  0
 12 14  1  0  0  0  0
 12 15  1  0  0  0  0
 12 17  1  0  0  0  0
 12 40  1  1  0  0  0
 13 14  1  0  0  0  0
 13 41  1  0  0  0  0
 14 18  1  6  0  0  0
 14 42  1  0  0  0  0
 15 43  1  0  0  0  0
 15 44  1  0  0  0  0
 16 17  2  0  0  0  0
 16 45  1  0  0  0  0
 17 46  1  0  0  0  0
 19 25  1  0  0  0  0
 20 21  1  0  0  0  0
 20 22  1  0  0  0  0
 20 50  1  0  0  0  0
 21 23  1  0  0  0  0
 21 51  1  0  0  0  0
 21 52  1  0  0  0  0
 22 24  1  0  0  0  0
 22 53  1  0  0  0  0
 22 54  1  0  0  0  0
 23 26  1  0  0  0  0
 23 55  1  0  0  0  0
 23 56  1  0  0  0  0
 24 27  1  0  0  0  0
 24 57  1  0  0  0  0
 24 58  1  0  0  0  0
 25 36  2  0  0  0  0
 26 27  2  0  0  0  0
 26 32  1  0  0  0  0
 27 35  1  0  0  0  0
 28 30  1  0  0  0  0
 28 59  1  0  0  0  0
 28 60  1  0  0  0  0
 29 31  1  0  0  0  0
 29 61  1  0  0  0  0
 29 62  1  0  0  0  0
 30 63  1  0  0  0  0
 30 64  1  0  0  0  0
 31 65  1  0  0  0  0
 31 66  1  0  0  0  0
 32 34  2  0  0  0  0
 34 37  1  0  0  0  0
 35 37  2  0  0  0  0
 35 67  1  0  0  0  0
 36 68  1  0  0  0  0
 37 70  1  0  0  0  0
 38 71  1  0  0  0  0
 38 72  1  0  0  0  0
 38 73  1  0  0  0  0
M  END
> <PUBCHEM_COMPOUND_CID>
57325421

> <PUBCHEM_COMPOUND_CANONICALIZED>
1

> <PUBCHEM_CACTVS_COMPLEXITY>
858

> <PUBCHEM_CACTVS_HBOND_ACCEPTOR>
8

> <PUBCHEM_CACTVS_HBOND_DONOR>
3

> <PUBCHEM_CACTVS_ROTATABLE_BOND>
7

> <PUBCHEM_CACTVS_SUBSKEYS>
AAADcfB7sAAEAAAAAAAAAAAAAAAAAYIAAAA8WIEABgAAAAABwAAAHgIQAAAADS7hmiY/9pfIFACoAjd3dACCiCkxI6AJ2KEtbJiOLrrE+dvHNChs0BPY6CeY2POOiAABQAAYEAAQAAKAADAgASAACQAAAA==

> <PUBCHEM_IUPAC_OPENEYE_NAME>
(1S,2S,3R,4R)-3-[[5-chloro-2-[[(7S)-4-methoxy-7-morpholino-6,7,8,9-tetrahydro-5H-benzo[7]annulen-3-yl]amino]pyrimidin-4-yl]amino]bicyclo[2.2.1]hept-5-ene-2-carboxamide

> <PUBCHEM_IUPAC_CAS_NAME>
(1S,2S,3R,4R)-3-[[5-chloro-2-[[(7S)-4-methoxy-7-(4-morpholinyl)-6,7,8,9-tetrahydro-5H-benzo[7]annulen-3-yl]amino]-4-pyrimidinyl]amino]-2-bicyclo[2.2.1]hept-5-enecarboxamide

> <PUBCHEM_IUPAC_NAME_MARKUP>
(1<I>S</I>,2<I>S</I>,3<I>R</I>,4<I>R</I>)-3-[[5-chloro-2-[[(7<I>S</I>)-4-methoxy-7-morpholin-4-yl-6,7,8,9-tetrahydro-5<I>H</I>-benzo[7]annulen-3-yl]amino]pyrimidin-4-yl]amino]bicyclo[2.2.1]hept-5-ene-2-carboxamide

> <PUBCHEM_IUPAC_NAME>
(1S,2S,3R,4R)-3-[[5-chloro-2-[[(7S)-4-methoxy-7-morpholin-4-yl-6,7,8,9-tetrahydro-5H-benzo[7]annulen-3-yl]amino]pyrimidin-4-yl]amino]bicyclo[2.2.1]hept-5-ene-2-carboxamide

> <PUBCHEM_IUPAC_SYSTEMATIC_NAME>
(1S,2S,3R,4R)-3-[[5-chloranyl-2-[[(7S)-4-methoxy-7-morpholin-4-yl-6,7,8,9-tetrahydro-5H-benzo[7]annulen-3-yl]amino]pyrimidin-4-yl]amino]bicyclo[2.2.1]hept-5-ene-2-carboxamide

> <PUBCHEM_IUPAC_TRADITIONAL_NAME>
(1S,2S,3R,4R)-3-[[5-chloro-2-[[(7S)-4-methoxy-7-morpholino-6,7,8,9-tetrahydro-5H-benzocyclohepten-3-yl]amino]pyrimidin-4-yl]amino]bicyclo[2.2.1]hept-5-ene-2-carboxamide

> <PUBCHEM_IUPAC_INCHI>
InChI=1S/C28H35ClN6O3/c1-37-25-20-8-7-19(35-10-12-38-13-11-35)6-4-16(20)5-9-22(25)32-28-31-15-21(29)27(34-28)33-24-18-3-2-17(14-18)23(24)26(30)36/h2-3,5,9,15,17-19,23-24H,4,6-8,10-14H2,1H3,(H2,30,36)(H2,31,32,33,34)/t17-,18+,19+,23+,24-/m1/s1

> <PUBCHEM_IUPAC_INCHIKEY>
LAJAFFLJAJMYLK-CVOKMOJFSA-N

> <PUBCHEM_XLOGP3_AA>
4.1

> <PUBCHEM_EXACT_MASS>
538.2459167

> <PUBCHEM_MOLECULAR_FORMULA>
C28H35ClN6O3

> <PUBCHEM_MOLECULAR_WEIGHT>
539.1

> <PUBCHEM_SMILES>
COC1=C(C=CC2=C1CC[C@H](CC2)N3CCOCC3)NC4=NC=C(C(=N4)N[C@@H]5[C@@H]6C[C@H]([C@@H]5C(=O)N)C=C6)Cl

> <PUBCHEM_OPENEYE_CAN_SMILES>
COC1=C(C=CC2=C1CCC(CC2)N3CCOCC3)NC4=NC=C(C(=N4)NC5C6CC(C5C(=O)N)C=C6)Cl

> <PUBCHEM_OPENEYE_ISO_SMILES>
COC1=C(C=CC2=C1CC[C@H](CC2)N3CCOCC3)NC4=NC=C(C(=N4)N[C@@H]5[C@@H]6C[C@H]([C@@H]5C(=O)N)C=C6)Cl

> <PUBCHEM_CACTVS_TPSA>
115

> <PUBCHEM_MONOISOTOPIC_WEIGHT>
538.2459167

> <PUBCHEM_TOTAL_CHARGE>
0

> <PUBCHEM_HEAVY_ATOM_COUNT>
38

> <PUBCHEM_ATOM_DEF_STEREO_COUNT>
5

> <PUBCHEM_ATOM_UDEF_STEREO_COUNT>
0

> <PUBCHEM_BOND_DEF_STEREO_COUNT>
0

> <PUBCHEM_BOND_UDEF_STEREO_COUNT>
0

> <PUBCHEM_ISOTOPIC_ATOM_COUNT>
0

> <PUBCHEM_COMPONENT_COUNT>
1

> <PUBCHEM_CACTVS_TAUTO_COUNT>
-1

> <PUBCHEM_COORDINATE_TYPE>
1
5
255

> <PUBCHEM_BONDANNOTATIONS>
10  33  8
10  36  8
11  39  6
12  40  5
14  18  6
19  25  8
25  36  8
26  27  8
26  32  8
27  35  8
32  34  8
34  37  8
35  37  8
13  5  6
20  7  6
8  19  8
8  33  8

$$$$
