24762205
  -OEChem-03192523182D

 70 74  0     0  0  0  0  0  0999 V2000
    4.5981   -4.4792    0.0000 O   0  0  0  0  0  0  0  0  0  0  0  0
    5.4641   -2.9792    0.0000 O   0  0  0  0  0  0  0  0  0  0  0  0
   13.7151    2.6276    0.0000 N   0  0  0  0  0  0  0  0  0  0  0  0
   14.3365    4.5287    0.0000 N   0  0  0  0  0  0  0  0  0  0  0  0
   11.5263   -2.4792    0.0000 N   0  0  0  0  0  0  0  0  0  0  0  0
   12.4725   -2.7839    0.0000 N   0  0  0  0  0  0  0  0  0  0  0  0
   10.6603   -0.9792    0.0000 N   0  0  0  0  0  0  0  0  0  0  0  0
   10.6603   -3.9792    0.0000 N   0  0  0  0  0  0  0  0  0  0  0  0
    6.3301   -4.4792    0.0000 N   0  0  0  0  0  0  0  0  0  0  0  0
   13.0473    3.3719    0.0000 C   0  0  0  0  0  0  0  0  0  0  0  0
   14.6937    2.8338    0.0000 C   0  0  0  0  0  0  0  0  0  0  0  0
   13.3580    4.3224    0.0000 C   0  0  0  0  0  0  0  0  0  0  0  0
   15.0043    3.7844    0.0000 C   0  0  0  0  0  0  0  0  0  0  0  0
   13.4045    1.6771    0.0000 C   0  0  0  0  0  0  0  0  0  0  0  0
   14.6471    5.4792    0.0000 C   0  0  0  0  0  0  0  0  0  0  0  0
   14.0723    0.9328    0.0000 C   0  0  0  0  0  0  0  0  0  0  0  0
   12.4260    1.4709    0.0000 C   0  0  0  0  0  0  0  0  0  0  0  0
   12.7832   -0.2239    0.0000 C   0  0  0  0  0  0  0  0  0  0  0  0
   13.7617   -0.0177    0.0000 C   0  0  0  0  0  0  0  0  0  0  0  0
   12.1153    0.5204    0.0000 C   0  0  0  0  0  0  0  0  0  0  0  0
   12.4725   -1.1745    0.0000 C   0  0  0  0  0  0  0  0  0  0  0  0
   11.5263   -1.4792    0.0000 C   0  0  0  0  0  0  0  0  0  0  0  0
   13.0561   -1.9792    0.0000 C   0  0  0  0  0  0  0  0  0  0  0  0
   10.6603   -2.9792    0.0000 C   0  0  0  0  0  0  0  0  0  0  0  0
    9.7942   -2.4792    0.0000 C   0  0  0  0  0  0  0  0  0  0  0  0
    9.7942   -1.4792    0.0000 C   0  0  0  0  0  0  0  0  0  0  0  0
    8.9282   -2.9792    0.0000 C   0  0  0  0  0  0  0  0  0  0  0  0
    2.8660   -4.4792    0.0000 C   0  0  0  0  0  0  0  0  0  0  0  0
    8.9282   -3.9792    0.0000 C   0  0  0  0  0  0  0  0  0  0  0  0
    8.0622   -2.4792    0.0000 C   0  0  0  0  0  0  0  0  0  0  0  0
    3.7320   -3.9792    0.0000 C   0  0  0  0  0  0  0  0  0  0  0  0
    7.1962   -3.9792    0.0000 C   0  0  0  0  0  0  0  0  0  0  0  0
    8.0622   -4.4792    0.0000 C   0  0  0  0  0  0  0  0  0  0  0  0
    7.1962   -2.9792    0.0000 C   0  0  0  0  0  0  0  0  0  0  0  0
    2.0000   -3.9792    0.0000 C   0  0  0  0  0  0  0  0  0  0  0  0
    2.8660   -5.4792    0.0000 C   0  0  0  0  0  0  0  0  0  0  0  0
    5.4641   -3.9792    0.0000 C   0  0  0  0  0  0  0  0  0  0  0  0
   12.5004    3.6640    0.0000 H   0  0  0  0  0  0  0  0  0  0  0  0
   12.6648    2.8840    0.0000 H   0  0  0  0  0  0  0  0  0  0  0  0
   14.7142    2.2142    0.0000 H   0  0  0  0  0  0  0  0  0  0  0  0
   15.3075    2.7465    0.0000 H   0  0  0  0  0  0  0  0  0  0  0  0
   13.3374    4.9421    0.0000 H   0  0  0  0  0  0  0  0  0  0  0  0
   12.7442    4.4098    0.0000 H   0  0  0  0  0  0  0  0  0  0  0  0
   15.5512    3.4924    0.0000 H   0  0  0  0  0  0  0  0  0  0  0  0
   15.3869    4.2723    0.0000 H   0  0  0  0  0  0  0  0  0  0  0  0
   15.2365    5.2866    0.0000 H   0  0  0  0  0  0  0  0  0  0  0  0
   14.8397    6.0685    0.0000 H   0  0  0  0  0  0  0  0  0  0  0  0
   14.0578    5.6718    0.0000 H   0  0  0  0  0  0  0  0  0  0  0  0
   14.6790    1.0607    0.0000 H   0  0  0  0  0  0  0  0  0  0  0  0
   12.0119    1.9324    0.0000 H   0  0  0  0  0  0  0  0  0  0  0  0
   14.1757   -0.4792    0.0000 H   0  0  0  0  0  0  0  0  0  0  0  0
   11.5086    0.3925    0.0000 H   0  0  0  0  0  0  0  0  0  0  0  0
   13.6761   -1.9792    0.0000 H   0  0  0  0  0  0  0  0  0  0  0  0
    9.2573   -1.1692    0.0000 H   0  0  0  0  0  0  0  0  0  0  0  0
    3.4030   -4.7892    0.0000 H   0  0  0  0  0  0  0  0  0  0  0  0
   11.1972   -4.2892    0.0000 H   0  0  0  0  0  0  0  0  0  0  0  0
   10.1233   -4.2892    0.0000 H   0  0  0  0  0  0  0  0  0  0  0  0
    9.4651   -4.2892    0.0000 H   0  0  0  0  0  0  0  0  0  0  0  0
    8.0622   -1.8592    0.0000 H   0  0  0  0  0  0  0  0  0  0  0  0
    4.1306   -3.5042    0.0000 H   0  0  0  0  0  0  0  0  0  0  0  0
    3.3335   -3.5042    0.0000 H   0  0  0  0  0  0  0  0  0  0  0  0
    8.0622   -5.0992    0.0000 H   0  0  0  0  0  0  0  0  0  0  0  0
    6.6592   -2.6692    0.0000 H   0  0  0  0  0  0  0  0  0  0  0  0
    2.3100   -3.4422    0.0000 H   0  0  0  0  0  0  0  0  0  0  0  0
    1.4631   -3.6692    0.0000 H   0  0  0  0  0  0  0  0  0  0  0  0
    1.6900   -4.5161    0.0000 H   0  0  0  0  0  0  0  0  0  0  0  0
    2.2460   -5.4792    0.0000 H   0  0  0  0  0  0  0  0  0  0  0  0
    2.8660   -6.0992    0.0000 H   0  0  0  0  0  0  0  0  0  0  0  0
    3.4860   -5.4792    0.0000 H   0  0  0  0  0  0  0  0  0  0  0  0
    6.3301   -5.0992    0.0000 H   0  0  0  0  0  0  0  0  0  0  0  0
  1 31  1  0  0  0  0
  1 37  1  0  0  0  0
  2 37  2  0  0  0  0
  3 10  1  0  0  0  0
  3 11  1  0  0  0  0
  3 14  1  0  0  0  0
  4 12  1  0  0  0  0
  4 13  1  0  0  0  0
  4 15  1  0  0  0  0
  5  6  1  0  0  0  0
  5 22  1  0  0  0  0
  5 24  1  0  0  0  0
  6 23  2  0  0  0  0
  7 22  1  0  0  0  0
  7 26  2  0  0  0  0
  8 24  1  0  0  0  0
  8 56  1  0  0  0  0
  8 57  1  0  0  0  0
  9 32  1  0  0  0  0
  9 37  1  0  0  0  0
  9 70  1  0  0  0  0
 10 12  1  0  0  0  0
 10 38  1  0  0  0  0
 10 39  1  0  0  0  0
 11 13  1  0  0  0  0
 11 40  1  0  0  0  0
 11 41  1  0  0  0  0
 12 42  1  0  0  0  0
 12 43  1  0  0  0  0
 13 44  1  0  0  0  0
 13 45  1  0  0  0  0
 14 16  2  0  0  0  0
 14 17  1  0  0  0  0
 15 46  1  0  0  0  0
 15 47  1  0  0  0  0
 15 48  1  0  0  0  0
 16 19  1  0  0  0  0
 16 49  1  0  0  0  0
 17 20  2  0  0  0  0
 17 50  1  0  0  0  0
 18 19  2  0  0  0  0
 18 20  1  0  0  0  0
 18 21  1  0  0  0  0
 19 51  1  0  0  0  0
 20 52  1  0  0  0  0
 21 22  2  0  0  0  0
 21 23  1  0  0  0  0
 23 53  1  0  0  0  0
 24 25  2  0  0  0  0
 25 26  1  0  0  0  0
 25 27  1  0  0  0  0
 26 54  1  0  0  0  0
 27 29  2  0  0  0  0
 27 30  1  0  0  0  0
 28 31  1  0  0  0  0
 28 35  1  0  0  0  0
 28 36  1  0  0  0  0
 28 55  1  0  0  0  0
 29 33  1  0  0  0  0
 29 58  1  0  0  0  0
 30 34  2  0  0  0  0
 30 59  1  0  0  0  0
 31 60  1  0  0  0  0
 31 61  1  0  0  0  0
 32 33  2  0  0  0  0
 32 34  1  0  0  0  0
 33 62  1  0  0  0  0
 34 63  1  0  0  0  0
 35 64  1  0  0  0  0
 35 65  1  0  0  0  0
 35 66  1  0  0  0  0
 36 67  1  0  0  0  0
 36 68  1  0  0  0  0
 36 69  1  0  0  0  0
M  END
> <PUBCHEM_COMPOUND_CID>
24762205

> <PUBCHEM_COMPOUND_CANONICALIZED>
1

> <PUBCHEM_CACTVS_COMPLEXITY>
730

> <PUBCHEM_CACTVS_HBOND_ACCEPTOR>
7

> <PUBCHEM_CACTVS_HBOND_DONOR>
2

> <PUBCHEM_CACTVS_ROTATABLE_BOND>
7

> <PUBCHEM_CACTVS_SUBSKEYS>
AAADcfB7sAAAAAAAAAAAAAAAAAAAAWAAAAA8eIEAAAAAAFgB9AAAHgAYAAAADQjhmwY/+J/IFACqAjZnfACShCsxgqAd2CAoZJmIaOLA2dGcpAh4nALIyCcQgMAOiAAAAAAAAAAQAAAAAAAAAAAAAAAAAA==

> <PUBCHEM_IUPAC_OPENEYE_NAME>
isobutyl N-[4-[7-amino-3-[4-(4-methylpiperazin-1-yl)phenyl]pyrazolo[1,5-a]pyrimidin-6-yl]phenyl]carbamate

> <PUBCHEM_IUPAC_CAS_NAME>
N-[4-[7-amino-3-[4-(4-methyl-1-piperazinyl)phenyl]-6-pyrazolo[1,5-a]pyrimidinyl]phenyl]carbamic acid 2-methylpropyl ester

> <PUBCHEM_IUPAC_NAME_MARKUP>
2-methylpropyl <I>N</I>-[4-[7-amino-3-[4-(4-methylpiperazin-1-yl)phenyl]pyrazolo[1,5-a]pyrimidin-6-yl]phenyl]carbamate

> <PUBCHEM_IUPAC_NAME>
2-methylpropyl N-[4-[7-amino-3-[4-(4-methylpiperazin-1-yl)phenyl]pyrazolo[1,5-a]pyrimidin-6-yl]phenyl]carbamate

> <PUBCHEM_IUPAC_SYSTEMATIC_NAME>
2-methylpropyl N-[4-[7-azanyl-3-[4-(4-methylpiperazin-1-yl)phenyl]pyrazolo[1,5-a]pyrimidin-6-yl]phenyl]carbamate

> <PUBCHEM_IUPAC_TRADITIONAL_NAME>
N-[4-[7-amino-3-[4-(4-methylpiperazino)phenyl]pyrazolo[1,5-a]pyrimidin-6-yl]phenyl]carbamic acid isobutyl ester

> <PUBCHEM_IUPAC_INCHI>
InChI=1S/C28H33N7O2/c1-19(2)18-37-28(36)32-22-8-4-20(5-9-22)24-16-30-27-25(17-31-35(27)26(24)29)21-6-10-23(11-7-21)34-14-12-33(3)13-15-34/h4-11,16-17,19H,12-15,18,29H2,1-3H3,(H,32,36)

> <PUBCHEM_IUPAC_INCHIKEY>
DAZCBQNFGSWSQG-UHFFFAOYSA-N

> <PUBCHEM_XLOGP3_AA>
4.1

> <PUBCHEM_EXACT_MASS>
499.26957332

> <PUBCHEM_MOLECULAR_FORMULA>
C28H33N7O2

> <PUBCHEM_MOLECULAR_WEIGHT>
499.6

> <PUBCHEM_SMILES>
CC(C)COC(=O)NC1=CC=C(C=C1)C2=C(N3C(=C(C=N3)C4=CC=C(C=C4)N5CCN(CC5)C)N=C2)N

> <PUBCHEM_OPENEYE_CAN_SMILES>
CC(C)COC(=O)NC1=CC=C(C=C1)C2=C(N3C(=C(C=N3)C4=CC=C(C=C4)N5CCN(CC5)C)N=C2)N

> <PUBCHEM_OPENEYE_ISO_SMILES>
CC(C)COC(=O)NC1=CC=C(C=C1)C2=C(N3C(=C(C=N3)C4=CC=C(C=C4)N5CCN(CC5)C)N=C2)N

> <PUBCHEM_CACTVS_TPSA>
101

> <PUBCHEM_MONOISOTOPIC_WEIGHT>
499.26957332

> <PUBCHEM_TOTAL_CHARGE>
0

> <PUBCHEM_HEAVY_ATOM_COUNT>
37

> <PUBCHEM_ATOM_DEF_STEREO_COUNT>
0

> <PUBCHEM_ATOM_UDEF_STEREO_COUNT>
0

> <PUBCHEM_BOND_DEF_STEREO_COUNT>
0

> <PUBCHEM_BOND_UDEF_STEREO_COUNT>
0

> <PUBCHEM_ISOTOPIC_ATOM_COUNT>
0

> <PUBCHEM_COMPONENT_COUNT>
1

> <PUBCHEM_CACTVS_TAUTO_COUNT>
-1

> <PUBCHEM_COORDINATE_TYPE>
1
5
255

> <PUBCHEM_BONDANNOTATIONS>
14  16  8
14  17  8
16  19  8
17  20  8
18  19  8
18  20  8
21  22  8
21  23  8
24  25  8
25  26  8
27  29  8
27  30  8
29  33  8
30  34  8
32  33  8
32  34  8
5  22  8
5  24  8
5  6  8
6  23  8
7  22  8
7  26  8

$$$$
