49830618
  -OEChem-03202502342D

 63 66  0     0  0  0  0  0  0999 V2000
   10.1279   -0.7798    0.0000 F   0  0  0  0  0  0  0  0  0  0  0  0
   10.7010    4.6519    0.0000 O   0  0  0  0  0  0  0  0  0  0  0  0
    3.7320   -2.7798    0.0000 O   0  0  0  0  0  0  0  0  0  0  0  0
    8.1226    2.3384    0.0000 N   0  0  0  0  0  0  0  0  0  0  0  0
    4.5981   -0.2798    0.0000 N   0  0  0  0  0  0  0  0  0  0  0  0
    6.8335    1.1817    0.0000 N   0  0  0  0  0  0  0  0  0  0  0  0
    5.5443   -1.5845    0.0000 N   0  0  0  0  0  0  0  0  0  0  0  0
    6.4763    2.8765    0.0000 N   0  0  0  0  0  0  0  0  0  0  0  0
    2.8660   -1.2798    0.0000 N   0  0  0  0  0  0  0  0  0  0  0  0
    9.4118    3.4952    0.0000 C   0  0  0  0  0  0  0  0  0  0  0  0
    8.4333    3.2890    0.0000 C   0  0  0  0  0  0  0  0  0  0  0  0
   10.3903    3.7014    0.0000 C   0  0  0  0  0  0  0  0  0  0  0  0
    9.2056    4.4737    0.0000 C   0  0  0  0  0  0  0  0  0  0  0  0
    9.6180    2.5167    0.0000 C   0  0  0  0  0  0  0  0  0  0  0  0
    5.5443    0.0250    0.0000 C   0  0  0  0  0  0  0  0  0  0  0  0
    7.1441    2.1322    0.0000 C   0  0  0  0  0  0  0  0  0  0  0  0
    6.1279   -0.7798    0.0000 C   0  0  0  0  0  0  0  0  0  0  0  0
    4.5981   -1.2798    0.0000 C   0  0  0  0  0  0  0  0  0  0  0  0
    5.8550    0.9755    0.0000 C   0  0  0  0  0  0  0  0  0  0  0  0
    2.8660   -4.2798    0.0000 C   0  0  0  0  0  0  0  0  0  0  0  0
    3.7320   -1.7798    0.0000 C   0  0  0  0  0  0  0  0  0  0  0  0
    2.8660   -3.2798    0.0000 C   0  0  0  0  0  0  0  0  0  0  0  0
    7.1279   -0.7798    0.0000 C   0  0  0  0  0  0  0  0  0  0  0  0
    3.7320    0.2202    0.0000 C   0  0  0  0  0  0  0  0  0  0  0  0
    5.1871    1.7198    0.0000 C   0  0  0  0  0  0  0  0  0  0  0  0
    5.4978    2.6703    0.0000 C   0  0  0  0  0  0  0  0  0  0  0  0
    2.0000   -4.7798    0.0000 C   0  0  0  0  0  0  0  0  0  0  0  0
    3.7320   -4.7798    0.0000 C   0  0  0  0  0  0  0  0  0  0  0  0
    2.8660   -0.2798    0.0000 C   0  0  0  0  0  0  0  0  0  0  0  0
    7.6279    0.0863    0.0000 C   0  0  0  0  0  0  0  0  0  0  0  0
    7.6279   -1.6458    0.0000 C   0  0  0  0  0  0  0  0  0  0  0  0
    8.6279    0.0863    0.0000 C   0  0  0  0  0  0  0  0  0  0  0  0
    8.6279   -1.6458    0.0000 C   0  0  0  0  0  0  0  0  0  0  0  0
    9.1279   -0.7798    0.0000 C   0  0  0  0  0  0  0  0  0  0  0  0
    8.4127    3.9086    0.0000 H   0  0  0  0  0  0  0  0  0  0  0  0
    7.8195    3.3763    0.0000 H   0  0  0  0  0  0  0  0  0  0  0  0
   10.4109    3.0817    0.0000 H   0  0  0  0  0  0  0  0  0  0  0  0
   11.0041    3.6140    0.0000 H   0  0  0  0  0  0  0  0  0  0  0  0
    9.8122    4.6015    0.0000 H   0  0  0  0  0  0  0  0  0  0  0  0
    9.0777    5.0804    0.0000 H   0  0  0  0  0  0  0  0  0  0  0  0
    8.5989    4.3458    0.0000 H   0  0  0  0  0  0  0  0  0  0  0  0
    9.0114    2.3888    0.0000 H   0  0  0  0  0  0  0  0  0  0  0  0
    9.7459    1.9100    0.0000 H   0  0  0  0  0  0  0  0  0  0  0  0
   10.2247    2.6445    0.0000 H   0  0  0  0  0  0  0  0  0  0  0  0
    8.5367    1.8770    0.0000 H   0  0  0  0  0  0  0  0  0  0  0  0
   11.3076    4.7798    0.0000 H   0  0  0  0  0  0  0  0  0  0  0  0
    2.8660   -4.8998    0.0000 H   0  0  0  0  0  0  0  0  0  0  0  0
    2.6540   -2.6972    0.0000 H   0  0  0  0  0  0  0  0  0  0  0  0
    2.2554   -3.3874    0.0000 H   0  0  0  0  0  0  0  0  0  0  0  0
    3.7320    0.8402    0.0000 H   0  0  0  0  0  0  0  0  0  0  0  0
    4.5804    1.5919    0.0000 H   0  0  0  0  0  0  0  0  0  0  0  0
    1.6900   -4.2428    0.0000 H   0  0  0  0  0  0  0  0  0  0  0  0
    1.4631   -5.0898    0.0000 H   0  0  0  0  0  0  0  0  0  0  0  0
    2.3100   -5.3167    0.0000 H   0  0  0  0  0  0  0  0  0  0  0  0
    3.4220   -5.3167    0.0000 H   0  0  0  0  0  0  0  0  0  0  0  0
    4.2690   -5.0898    0.0000 H   0  0  0  0  0  0  0  0  0  0  0  0
    4.0420   -4.2428    0.0000 H   0  0  0  0  0  0  0  0  0  0  0  0
    5.0837    3.1318    0.0000 H   0  0  0  0  0  0  0  0  0  0  0  0
    2.3291    0.0302    0.0000 H   0  0  0  0  0  0  0  0  0  0  0  0
    7.3179    0.6232    0.0000 H   0  0  0  0  0  0  0  0  0  0  0  0
    7.3179   -2.1827    0.0000 H   0  0  0  0  0  0  0  0  0  0  0  0
    8.9379    0.6232    0.0000 H   0  0  0  0  0  0  0  0  0  0  0  0
    8.9379   -2.1827    0.0000 H   0  0  0  0  0  0  0  0  0  0  0  0
  1 34  1  0  0  0  0
  2 12  1  0  0  0  0
  2 46  1  0  0  0  0
  3 21  1  0  0  0  0
  3 22  1  0  0  0  0
  4 11  1  0  0  0  0
  4 16  1  0  0  0  0
  4 45  1  0  0  0  0
  5 15  1  0  0  0  0
  5 18  1  0  0  0  0
  5 24  1  0  0  0  0
  6 16  1  0  0  0  0
  6 19  2  0  0  0  0
  7 17  1  0  0  0  0
  7 18  2  0  0  0  0
  8 16  2  0  0  0  0
  8 26  1  0  0  0  0
  9 21  2  0  0  0  0
  9 29  1  0  0  0  0
 10 11  1  0  0  0  0
 10 12  1  0  0  0  0
 10 13  1  0  0  0  0
 10 14  1  0  0  0  0
 11 35  1  0  0  0  0
 11 36  1  0  0  0  0
 12 37  1  0  0  0  0
 12 38  1  0  0  0  0
 13 39  1  0  0  0  0
 13 40  1  0  0  0  0
 13 41  1  0  0  0  0
 14 42  1  0  0  0  0
 14 43  1  0  0  0  0
 14 44  1  0  0  0  0
 15 17  2  0  0  0  0
 15 19  1  0  0  0  0
 17 23  1  0  0  0  0
 18 21  1  0  0  0  0
 19 25  1  0  0  0  0
 20 22  1  0  0  0  0
 20 27  1  0  0  0  0
 20 28  1  0  0  0  0
 20 47  1  0  0  0  0
 22 48  1  0  0  0  0
 22 49  1  0  0  0  0
 23 30  2  0  0  0  0
 23 31  1  0  0  0  0
 24 29  2  0  0  0  0
 24 50  1  0  0  0  0
 25 26  2  0  0  0  0
 25 51  1  0  0  0  0
 26 58  1  0  0  0  0
 27 52  1  0  0  0  0
 27 53  1  0  0  0  0
 27 54  1  0  0  0  0
 28 55  1  0  0  0  0
 28 56  1  0  0  0  0
 28 57  1  0  0  0  0
 29 59  1  0  0  0  0
 30 32  1  0  0  0  0
 30 60  1  0  0  0  0
 31 33  2  0  0  0  0
 31 61  1  0  0  0  0
 32 34  2  0  0  0  0
 32 62  1  0  0  0  0
 33 34  1  0  0  0  0
 33 63  1  0  0  0  0
M  END
> <PUBCHEM_COMPOUND_CID>
49830618

> <PUBCHEM_COMPOUND_CANONICALIZED>
1

> <PUBCHEM_CACTVS_COMPLEXITY>
633

> <PUBCHEM_CACTVS_HBOND_ACCEPTOR>
8

> <PUBCHEM_CACTVS_HBOND_DONOR>
2

> <PUBCHEM_CACTVS_ROTATABLE_BOND>
9

> <PUBCHEM_CACTVS_SUBSKEYS>
AAADceB7sQAAAAAAAAAAAAAAAAAAAWAAAAA8WIAAAAAAAFgB/AAAHwAQCAAADwjhnw4/tJ/MHgCgAzZnZASCiC0xUqAJ2KA5dJiOeOLA2dGfbAjqgALYyCcQgMAOAAAAAAAAAAAAAAAAAAAAAAAAAAAAAA==

> <PUBCHEM_IUPAC_OPENEYE_NAME>
3-[[4-[2-(4-fluorophenyl)-8-isobutoxy-imidazo[1,2-a]pyrazin-3-yl]pyrimidin-2-yl]amino]-2,2-dimethyl-propan-1-ol

> <PUBCHEM_IUPAC_CAS_NAME>
3-[[4-[2-(4-fluorophenyl)-8-(2-methylpropoxy)-3-imidazo[1,2-a]pyrazinyl]-2-pyrimidinyl]amino]-2,2-dimethyl-1-propanol

> <PUBCHEM_IUPAC_NAME_MARKUP>
3-[[4-[2-(4-fluorophenyl)-8-(2-methylpropoxy)imidazo[1,2-a]pyrazin-3-yl]pyrimidin-2-yl]amino]-2,2-dimethylpropan-1-ol

> <PUBCHEM_IUPAC_NAME>
3-[[4-[2-(4-fluorophenyl)-8-(2-methylpropoxy)imidazo[1,2-a]pyrazin-3-yl]pyrimidin-2-yl]amino]-2,2-dimethylpropan-1-ol

> <PUBCHEM_IUPAC_SYSTEMATIC_NAME>
3-[[4-[2-(4-fluorophenyl)-8-(2-methylpropoxy)imidazo[1,2-a]pyrazin-3-yl]pyrimidin-2-yl]amino]-2,2-dimethyl-propan-1-ol

> <PUBCHEM_IUPAC_TRADITIONAL_NAME>
3-[[4-[2-(4-fluorophenyl)-8-isobutoxy-imidazo[1,2-a]pyrazin-3-yl]pyrimidin-2-yl]amino]-2,2-dimethyl-propan-1-ol

> <PUBCHEM_IUPAC_INCHI>
InChI=1S/C25H29FN6O2/c1-16(2)13-34-23-22-31-20(17-5-7-18(26)8-6-17)21(32(22)12-11-27-23)19-9-10-28-24(30-19)29-14-25(3,4)15-33/h5-12,16,33H,13-15H2,1-4H3,(H,28,29,30)

> <PUBCHEM_IUPAC_INCHIKEY>
DDDPTRGZLJPPQR-UHFFFAOYSA-N

> <PUBCHEM_XLOGP3_AA>
5.4

> <PUBCHEM_EXACT_MASS>
464.23360235

> <PUBCHEM_MOLECULAR_FORMULA>
C25H29FN6O2

> <PUBCHEM_MOLECULAR_WEIGHT>
464.5

> <PUBCHEM_SMILES>
CC(C)COC1=NC=CN2C1=NC(=C2C3=NC(=NC=C3)NCC(C)(C)CO)C4=CC=C(C=C4)F

> <PUBCHEM_OPENEYE_CAN_SMILES>
CC(C)COC1=NC=CN2C1=NC(=C2C3=NC(=NC=C3)NCC(C)(C)CO)C4=CC=C(C=C4)F

> <PUBCHEM_OPENEYE_ISO_SMILES>
CC(C)COC1=NC=CN2C1=NC(=C2C3=NC(=NC=C3)NCC(C)(C)CO)C4=CC=C(C=C4)F

> <PUBCHEM_CACTVS_TPSA>
97.5

> <PUBCHEM_MONOISOTOPIC_WEIGHT>
464.23360235

> <PUBCHEM_TOTAL_CHARGE>
0

> <PUBCHEM_HEAVY_ATOM_COUNT>
34

> <PUBCHEM_ATOM_DEF_STEREO_COUNT>
0

> <PUBCHEM_ATOM_UDEF_STEREO_COUNT>
0

> <PUBCHEM_BOND_DEF_STEREO_COUNT>
0

> <PUBCHEM_BOND_UDEF_STEREO_COUNT>
0

> <PUBCHEM_ISOTOPIC_ATOM_COUNT>
0

> <PUBCHEM_COMPONENT_COUNT>
1

> <PUBCHEM_CACTVS_TAUTO_COUNT>
-1

> <PUBCHEM_COORDINATE_TYPE>
1
5
255

> <PUBCHEM_BONDANNOTATIONS>
15  17  8
18  21  8
19  25  8
23  30  8
23  31  8
24  29  8
25  26  8
30  32  8
31  33  8
32  34  8
33  34  8
5  15  8
5  18  8
5  24  8
6  16  8
6  19  8
7  17  8
7  18  8
8  16  8
8  26  8
9  21  8
9  29  8

$$$$
