451660
  -OEChem-03202506482D

 85 84  0     1  0  0  0  0  0999 V2000
   10.8779    0.0000    0.0000 Br  0  5  0  0  0  0  0  0  0  0  0  0
    6.3524    2.7687    0.0000 O   0  0  0  0  0  0  0  0  0  0  0  0
    6.8524    4.3075    0.0000 O   0  0  0  0  0  0  0  0  0  0  0  0
    0.4608    4.4368    0.0000 O   0  0  0  0  0  0  0  0  0  0  0  0
    3.8492    3.7166    0.0000 N   0  3  0  0  0  0  0  0  0  0  0  0
    4.5923    3.0474    0.0000 C   0  0  0  0  0  0  0  0  0  0  0  0
    5.5434    3.3564    0.0000 C   0  0  3  0  0  0  0  0  0  0  0  0
    3.1060    4.3857    0.0000 C   0  0  0  0  0  0  0  0  0  0  0  0
    5.8524    4.3075    0.0000 C   0  0  0  0  0  0  0  0  0  0  0  0
    7.1614    3.3564    0.0000 C   0  0  3  0  0  0  0  0  0  0  0  0
    3.1800    2.9734    0.0000 C   0  0  0  0  0  0  0  0  0  0  0  0
    4.5183    4.4597    0.0000 C   0  0  0  0  0  0  0  0  0  0  0  0
    2.1550    4.0767    0.0000 C   0  0  0  0  0  0  0  0  0  0  0  0
    8.1124    3.0474    0.0000 C   0  0  0  0  0  0  0  0  0  0  0  0
    8.8556    3.7166    0.0000 C   0  0  0  0  0  0  0  0  0  0  0  0
    9.8066    3.4075    0.0000 C   0  0  0  0  0  0  0  0  0  0  0  0
    1.4118    4.7458    0.0000 C   0  0  0  0  0  0  0  0  0  0  0  0
   10.5498    4.0767    0.0000 C   0  0  0  0  0  0  0  0  0  0  0  0
   11.5008    3.7676    0.0000 C   0  0  0  0  0  0  0  0  0  0  0  0
   12.2440    4.4368    0.0000 C   0  0  0  0  0  0  0  0  0  0  0  0
   13.1950    4.1278    0.0000 C   0  0  0  0  0  0  0  0  0  0  0  0
   13.9382    4.7969    0.0000 C   0  0  0  0  0  0  0  0  0  0  0  0
   14.8892    4.4879    0.0000 C   0  0  0  0  0  0  0  0  0  0  0  0
   15.6324    5.1570    0.0000 C   0  0  0  0  0  0  0  0  0  0  0  0
   16.5835    4.8480    0.0000 C   0  0  0  0  0  0  0  0  0  0  0  0
   17.3266    5.5171    0.0000 C   0  0  0  0  0  0  0  0  0  0  0  0
   18.2777    5.2081    0.0000 C   0  0  0  0  0  0  0  0  0  0  0  0
   19.0208    5.8772    0.0000 C   0  0  0  0  0  0  0  0  0  0  0  0
   19.9719    5.5682    0.0000 C   0  0  0  0  0  0  0  0  0  0  0  0
   20.7150    6.2374    0.0000 C   0  0  0  0  0  0  0  0  0  0  0  0
   21.6661    5.9283    0.0000 C   0  0  0  0  0  0  0  0  0  0  0  0
    4.1037    2.6657    0.0000 H   0  0  0  0  0  0  0  0  0  0  0  0
    4.8834    2.5000    0.0000 H   0  0  0  0  0  0  0  0  0  0  0  0
    5.4464    2.7441    0.0000 H   0  0  0  0  0  0  0  0  0  0  0  0
    3.5946    4.7674    0.0000 H   0  0  0  0  0  0  0  0  0  0  0  0
    2.8149    4.9331    0.0000 H   0  0  0  0  0  0  0  0  0  0  0  0
    5.9172    4.9241    0.0000 H   0  0  0  0  0  0  0  0  0  0  0  0
    5.2459    4.4364    0.0000 H   0  0  0  0  0  0  0  0  0  0  0  0
    7.2584    2.7441    0.0000 H   0  0  0  0  0  0  0  0  0  0  0  0
    2.7193    3.3883    0.0000 H   0  0  0  0  0  0  0  0  0  0  0  0
    2.7652    2.5127    0.0000 H   0  0  0  0  0  0  0  0  0  0  0  0
    3.6408    2.5586    0.0000 H   0  0  0  0  0  0  0  0  0  0  0  0
    4.9790    4.0448    0.0000 H   0  0  0  0  0  0  0  0  0  0  0  0
    4.9331    4.9204    0.0000 H   0  0  0  0  0  0  0  0  0  0  0  0
    4.0575    4.8746    0.0000 H   0  0  0  0  0  0  0  0  0  0  0  0
    1.6664    3.6950    0.0000 H   0  0  0  0  0  0  0  0  0  0  0  0
    2.4460    3.5292    0.0000 H   0  0  0  0  0  0  0  0  0  0  0  0
    7.8214    2.5000    0.0000 H   0  0  0  0  0  0  0  0  0  0  0  0
    8.6010    2.6657    0.0000 H   0  0  0  0  0  0  0  0  0  0  0  0
    9.1467    4.2640    0.0000 H   0  0  0  0  0  0  0  0  0  0  0  0
    8.3670    4.0983    0.0000 H   0  0  0  0  0  0  0  0  0  0  0  0
    9.5156    2.8601    0.0000 H   0  0  0  0  0  0  0  0  0  0  0  0
   10.2952    3.0258    0.0000 H   0  0  0  0  0  0  0  0  0  0  0  0
    1.9004    5.1275    0.0000 H   0  0  0  0  0  0  0  0  0  0  0  0
    1.1207    5.2932    0.0000 H   0  0  0  0  0  0  0  0  0  0  0  0
   10.8409    4.6241    0.0000 H   0  0  0  0  0  0  0  0  0  0  0  0
   10.0612    4.4584    0.0000 H   0  0  0  0  0  0  0  0  0  0  0  0
   11.2098    3.2202    0.0000 H   0  0  0  0  0  0  0  0  0  0  0  0
   11.9894    3.3859    0.0000 H   0  0  0  0  0  0  0  0  0  0  0  0
   12.5351    4.9842    0.0000 H   0  0  0  0  0  0  0  0  0  0  0  0
   11.7554    4.8185    0.0000 H   0  0  0  0  0  0  0  0  0  0  0  0
   12.9040    3.5803    0.0000 H   0  0  0  0  0  0  0  0  0  0  0  0
   13.6836    3.7461    0.0000 H   0  0  0  0  0  0  0  0  0  0  0  0
   14.2293    5.3443    0.0000 H   0  0  0  0  0  0  0  0  0  0  0  0
   13.4496    5.1786    0.0000 H   0  0  0  0  0  0  0  0  0  0  0  0
   14.5982    3.9404    0.0000 H   0  0  0  0  0  0  0  0  0  0  0  0
   15.3778    4.1062    0.0000 H   0  0  0  0  0  0  0  0  0  0  0  0
   15.9235    5.7044    0.0000 H   0  0  0  0  0  0  0  0  0  0  0  0
   15.1438    5.5387    0.0000 H   0  0  0  0  0  0  0  0  0  0  0  0
   16.2924    4.3006    0.0000 H   0  0  0  0  0  0  0  0  0  0  0  0
   17.0720    4.4663    0.0000 H   0  0  0  0  0  0  0  0  0  0  0  0
   17.6177    6.0646    0.0000 H   0  0  0  0  0  0  0  0  0  0  0  0
   16.8380    5.8988    0.0000 H   0  0  0  0  0  0  0  0  0  0  0  0
   17.9866    4.6607    0.0000 H   0  0  0  0  0  0  0  0  0  0  0  0
   18.7662    4.8264    0.0000 H   0  0  0  0  0  0  0  0  0  0  0  0
    0.0000    4.8516    0.0000 H   0  0  0  0  0  0  0  0  0  0  0  0
   19.3119    6.4247    0.0000 H   0  0  0  0  0  0  0  0  0  0  0  0
   18.5322    6.2589    0.0000 H   0  0  0  0  0  0  0  0  0  0  0  0
   19.6808    5.0208    0.0000 H   0  0  0  0  0  0  0  0  0  0  0  0
   20.4604    5.1865    0.0000 H   0  0  0  0  0  0  0  0  0  0  0  0
   21.0061    6.7848    0.0000 H   0  0  0  0  0  0  0  0  0  0  0  0
   20.2264    6.6191    0.0000 H   0  0  0  0  0  0  0  0  0  0  0  0
   21.4745    5.3387    0.0000 H   0  0  0  0  0  0  0  0  0  0  0  0
   22.2557    5.7368    0.0000 H   0  0  0  0  0  0  0  0  0  0  0  0
   21.8576    6.5180    0.0000 H   0  0  0  0  0  0  0  0  0  0  0  0
  2  7  1  0  0  0  0
  2 10  1  0  0  0  0
  3  9  1  0  0  0  0
  3 10  1  0  0  0  0
  4 17  1  0  0  0  0
  4 76  1  0  0  0  0
  5  6  1  0  0  0  0
  5  8  1  0  0  0  0
  5 11  1  0  0  0  0
  5 12  1  0  0  0  0
  6  7  1  0  0  0  0
  6 32  1  0  0  0  0
  6 33  1  0  0  0  0
  7  9  1  0  0  0  0
  7 34  1  0  0  0  0
  8 13  1  0  0  0  0
  8 35  1  0  0  0  0
  8 36  1  0  0  0  0
  9 37  1  0  0  0  0
  9 38  1  0  0  0  0
 10 14  1  0  0  0  0
 10 39  1  0  0  0  0
 11 40  1  0  0  0  0
 11 41  1  0  0  0  0
 11 42  1  0  0  0  0
 12 43  1  0  0  0  0
 12 44  1  0  0  0  0
 12 45  1  0  0  0  0
 13 17  1  0  0  0  0
 13 46  1  0  0  0  0
 13 47  1  0  0  0  0
 14 15  1  0  0  0  0
 14 48  1  0  0  0  0
 14 49  1  0  0  0  0
 15 16  1  0  0  0  0
 15 50  1  0  0  0  0
 15 51  1  0  0  0  0
 16 18  1  0  0  0  0
 16 52  1  0  0  0  0
 16 53  1  0  0  0  0
 17 54  1  0  0  0  0
 17 55  1  0  0  0  0
 18 19  1  0  0  0  0
 18 56  1  0  0  0  0
 18 57  1  0  0  0  0
 19 20  1  0  0  0  0
 19 58  1  0  0  0  0
 19 59  1  0  0  0  0
 20 21  1  0  0  0  0
 20 60  1  0  0  0  0
 20 61  1  0  0  0  0
 21 22  1  0  0  0  0
 21 62  1  0  0  0  0
 21 63  1  0  0  0  0
 22 23  1  0  0  0  0
 22 64  1  0  0  0  0
 22 65  1  0  0  0  0
 23 24  1  0  0  0  0
 23 66  1  0  0  0  0
 23 67  1  0  0  0  0
 24 25  1  0  0  0  0
 24 68  1  0  0  0  0
 24 69  1  0  0  0  0
 25 26  1  0  0  0  0
 25 70  1  0  0  0  0
 25 71  1  0  0  0  0
 26 27  1  0  0  0  0
 26 72  1  0  0  0  0
 26 73  1  0  0  0  0
 27 28  1  0  0  0  0
 27 74  1  0  0  0  0
 27 75  1  0  0  0  0
 28 29  1  0  0  0  0
 28 77  1  0  0  0  0
 28 78  1  0  0  0  0
 29 30  1  0  0  0  0
 29 79  1  0  0  0  0
 29 80  1  0  0  0  0
 30 31  1  0  0  0  0
 30 81  1  0  0  0  0
 30 82  1  0  0  0  0
 31 83  1  0  0  0  0
 31 84  1  0  0  0  0
 31 85  1  0  0  0  0
M  CHG  2   1  -1   5   1
M  END
> <PUBCHEM_COMPOUND_CID>
451660

> <PUBCHEM_COMPOUND_CANONICALIZED>
1

> <PUBCHEM_CACTVS_COMPLEXITY>
375

> <PUBCHEM_CACTVS_HBOND_ACCEPTOR>
4

> <PUBCHEM_CACTVS_HBOND_DONOR>
1

> <PUBCHEM_CACTVS_ROTATABLE_BOND>
21

> <PUBCHEM_CACTVS_SUBSKEYS>
AAADcfB6MAAAEAAAAAAAAAAAAAAAASAAAAAAAAAAAAAAAAAAAAAAHgAACAAACBTxgAcCCAMABgAAAAAAAAAAAAAAAAAAAAAIAAATEAIAAAAnQAAGAACWAAGAwKAAAAAAAAAAAAAAAAAAAAAAAAAAAAAAAA==

> <PUBCHEM_IUPAC_OPENEYE_NAME>
(2-heptadecyl-1,3-dioxolan-4-yl)methyl-(3-hydroxypropyl)-dimethyl-ammonium;bromide

> <PUBCHEM_IUPAC_CAS_NAME>
(2-heptadecyl-1,3-dioxolan-4-yl)methyl-(3-hydroxypropyl)-dimethylammonium;bromide

> <PUBCHEM_IUPAC_NAME_MARKUP>
(2-heptadecyl-1,3-dioxolan-4-yl)methyl-(3-hydroxypropyl)-dimethylazanium;bromide

> <PUBCHEM_IUPAC_NAME>
(2-heptadecyl-1,3-dioxolan-4-yl)methyl-(3-hydroxypropyl)-dimethylazanium;bromide

> <PUBCHEM_IUPAC_SYSTEMATIC_NAME>
(2-heptadecyl-1,3-dioxolan-4-yl)methyl-dimethyl-(3-oxidanylpropyl)azanium;bromide

> <PUBCHEM_IUPAC_TRADITIONAL_NAME>
(2-heptadecyl-1,3-dioxolan-4-yl)methyl-(3-hydroxypropyl)-dimethyl-ammonium;bromide

> <PUBCHEM_IUPAC_INCHI>
InChI=1S/C26H54NO3.BrH/c1-4-5-6-7-8-9-10-11-12-13-14-15-16-17-18-20-26-29-24-25(30-26)23-27(2,3)21-19-22-28;/h25-26,28H,4-24H2,1-3H3;1H/q+1;/p-1

> <PUBCHEM_IUPAC_INCHIKEY>
XXQNJYHYUYGZKY-UHFFFAOYSA-M

> <PUBCHEM_EXACT_MASS>
507.32871

> <PUBCHEM_MOLECULAR_FORMULA>
C26H54BrNO3

> <PUBCHEM_MOLECULAR_WEIGHT>
508.6

> <PUBCHEM_SMILES>
CCCCCCCCCCCCCCCCCC1OCC(O1)C[N+](C)(C)CCCO.[Br-]

> <PUBCHEM_OPENEYE_CAN_SMILES>
CCCCCCCCCCCCCCCCCC1OCC(O1)C[N+](C)(C)CCCO.[Br-]

> <PUBCHEM_OPENEYE_ISO_SMILES>
CCCCCCCCCCCCCCCCCC1OCC(O1)C[N+](C)(C)CCCO.[Br-]

> <PUBCHEM_CACTVS_TPSA>
38.7

> <PUBCHEM_MONOISOTOPIC_WEIGHT>
507.32871

> <PUBCHEM_TOTAL_CHARGE>
0

> <PUBCHEM_HEAVY_ATOM_COUNT>
31

> <PUBCHEM_ATOM_DEF_STEREO_COUNT>
0

> <PUBCHEM_ATOM_UDEF_STEREO_COUNT>
2

> <PUBCHEM_BOND_DEF_STEREO_COUNT>
0

> <PUBCHEM_BOND_UDEF_STEREO_COUNT>
0

> <PUBCHEM_ISOTOPIC_ATOM_COUNT>
0

> <PUBCHEM_COMPONENT_COUNT>
2

> <PUBCHEM_CACTVS_TAUTO_COUNT>
-1

> <PUBCHEM_COORDINATE_TYPE>
1
5
255

> <PUBCHEM_BONDANNOTATIONS>
10  14  3
7  6  3

$$$$
