10391182
  -OEChem-03202501022D

 63 67  0     1  0  0  0  0  0999 V2000
    8.9962   -0.4623    0.0000 S   0  0  0  0  0  0  0  0  0  0  0  0
    7.9962   -0.4623    0.0000 O   0  0  0  0  0  0  0  0  0  0  0  0
    9.9962   -0.4623    0.0000 O   0  0  0  0  0  0  0  0  0  0  0  0
    8.9962   -1.4623    0.0000 N   0  0  3  0  0  0  0  0  0  0  0  0
   10.7446    3.5723    0.0000 N   0  0  0  0  0  0  0  0  0  0  0  0
   10.7282   -3.4623    0.0000 N   0  0  0  0  0  0  0  0  0  0  0  0
    7.2641   -3.4623    0.0000 N   0  0  0  0  0  0  0  0  0  0  0  0
    2.0000   -0.4415    0.0000 N   0  0  0  0  0  0  0  0  0  0  0  0
    8.9962    0.5377    0.0000 C   0  0  0  0  0  0  0  0  0  0  0  0
    9.8622    1.0377    0.0000 C   0  0  0  0  0  0  0  0  0  0  0  0
    9.8622    2.0377    0.0000 C   0  0  0  0  0  0  0  0  0  0  0  0
    9.8622   -1.9623    0.0000 C   0  0  0  0  0  0  0  0  0  0  0  0
    8.1301   -1.9623    0.0000 C   0  0  0  0  0  0  0  0  0  0  0  0
   10.7561    2.5724    0.0000 C   0  0  0  0  0  0  0  0  0  0  0  0
    8.1301    1.0377    0.0000 C   0  0  0  0  0  0  0  0  0  0  0  0
   10.7561    0.5031    0.0000 C   0  0  0  0  0  0  0  0  0  0  0  0
    8.9962    2.5377    0.0000 C   0  0  0  0  0  0  0  0  0  0  0  0
    9.8622   -2.9623    0.0000 C   0  0  0  0  0  0  0  0  0  0  0  0
    8.1301    2.0377    0.0000 C   0  0  0  0  0  0  0  0  0  0  0  0
    7.2641   -1.4623    0.0000 C   0  0  0  0  0  0  0  0  0  0  0  0
   11.6622    2.0585    0.0000 C   0  0  0  0  0  0  0  0  0  0  0  0
   11.6622    1.0169    0.0000 C   0  0  0  0  0  0  0  0  0  0  0  0
    6.3981   -1.9623    0.0000 C   0  0  0  0  0  0  0  0  0  0  0  0
    8.1301   -2.9623    0.0000 C   0  0  0  0  0  0  0  0  0  0  0  0
    5.5321   -1.4623    0.0000 C   0  0  0  0  0  0  0  0  0  0  0  0
    6.3981   -2.9623    0.0000 C   0  0  0  0  0  0  0  0  0  0  0  0
   11.6048    4.0823    0.0000 C   0  0  0  0  0  0  0  0  0  0  0  0
    9.8728    4.0623    0.0000 C   0  0  0  0  0  0  0  0  0  0  0  0
    4.6660   -1.9623    0.0000 C   0  0  0  0  0  0  0  0  0  0  0  0
    3.8000   -1.4623    0.0000 C   0  0  0  0  0  0  0  0  0  0  0  0
    5.5321   -0.4623    0.0000 C   0  0  0  0  0  0  0  0  0  0  0  0
    3.8000   -0.4623    0.0000 C   0  0  0  0  0  0  0  0  0  0  0  0
    4.6660    0.0377    0.0000 C   0  0  0  0  0  0  0  0  0  0  0  0
    2.9061   -1.9970    0.0000 C   0  0  0  0  0  0  0  0  0  0  0  0
    2.9061    0.0724    0.0000 C   0  0  0  0  0  0  0  0  0  0  0  0
    2.0000   -1.4831    0.0000 C   0  0  0  0  0  0  0  0  0  0  0  0
   10.4728   -2.0700    0.0000 H   0  0  0  0  0  0  0  0  0  0  0  0
   10.0742   -1.3797    0.0000 H   0  0  0  0  0  0  0  0  0  0  0  0
    7.5932    0.7277    0.0000 H   0  0  0  0  0  0  0  0  0  0  0  0
   10.7490   -0.1169    0.0000 H   0  0  0  0  0  0  0  0  0  0  0  0
    8.9962    3.1577    0.0000 H   0  0  0  0  0  0  0  0  0  0  0  0
    9.2516   -2.8546    0.0000 H   0  0  0  0  0  0  0  0  0  0  0  0
    9.6501   -3.5449    0.0000 H   0  0  0  0  0  0  0  0  0  0  0  0
    7.5932    2.3477    0.0000 H   0  0  0  0  0  0  0  0  0  0  0  0
    7.2641   -0.8423    0.0000 H   0  0  0  0  0  0  0  0  0  0  0  0
   12.1979    2.3706    0.0000 H   0  0  0  0  0  0  0  0  0  0  0  0
   12.1979    0.7048    0.0000 H   0  0  0  0  0  0  0  0  0  0  0  0
    8.6671   -3.2723    0.0000 H   0  0  0  0  0  0  0  0  0  0  0  0
    5.8612   -3.2723    0.0000 H   0  0  0  0  0  0  0  0  0  0  0  0
   11.9209    3.5490    0.0000 H   0  0  0  0  0  0  0  0  0  0  0  0
   12.1381    4.3985    0.0000 H   0  0  0  0  0  0  0  0  0  0  0  0
   11.2886    4.6156    0.0000 H   0  0  0  0  0  0  0  0  0  0  0  0
   10.1766    4.6027    0.0000 H   0  0  0  0  0  0  0  0  0  0  0  0
    9.3323    4.3660    0.0000 H   0  0  0  0  0  0  0  0  0  0  0  0
    9.5690    3.5218    0.0000 H   0  0  0  0  0  0  0  0  0  0  0  0
    4.6660   -2.5823    0.0000 H   0  0  0  0  0  0  0  0  0  0  0  0
   10.7282   -4.0823    0.0000 H   0  0  0  0  0  0  0  0  0  0  0  0
   11.2651   -3.1523    0.0000 H   0  0  0  0  0  0  0  0  0  0  0  0
    6.0690   -0.1523    0.0000 H   0  0  0  0  0  0  0  0  0  0  0  0
    4.6660    0.6577    0.0000 H   0  0  0  0  0  0  0  0  0  0  0  0
    2.9132   -2.6169    0.0000 H   0  0  0  0  0  0  0  0  0  0  0  0
    2.9132    0.6923    0.0000 H   0  0  0  0  0  0  0  0  0  0  0  0
    1.4643   -1.7952    0.0000 H   0  0  0  0  0  0  0  0  0  0  0  0
  1  2  2  0  0  0  0
  1  3  2  0  0  0  0
  1  4  1  0  0  0  0
  1  9  1  0  0  0  0
  4 12  1  0  0  0  0
  4 13  1  0  0  0  0
  5 14  1  0  0  0  0
  5 27  1  0  0  0  0
  5 28  1  0  0  0  0
  6 18  1  0  0  0  0
  6 57  1  0  0  0  0
  6 58  1  0  0  0  0
  7 24  1  0  0  0  0
  7 26  2  0  0  0  0
  8 35  2  0  0  0  0
  8 36  1  0  0  0  0
  9 10  1  0  0  0  0
  9 15  2  0  0  0  0
 10 11  2  0  0  0  0
 10 16  1  0  0  0  0
 11 14  1  0  0  0  0
 11 17  1  0  0  0  0
 12 18  1  0  0  0  0
 12 37  1  0  0  0  0
 12 38  1  0  0  0  0
 13 20  1  0  0  0  0
 13 24  2  0  0  0  0
 14 21  2  0  0  0  0
 15 19  1  0  0  0  0
 15 39  1  0  0  0  0
 16 22  2  0  0  0  0
 16 40  1  0  0  0  0
 17 19  2  0  0  0  0
 17 41  1  0  0  0  0
 18 42  1  0  0  0  0
 18 43  1  0  0  0  0
 19 44  1  0  0  0  0
 20 23  2  0  0  0  0
 20 45  1  0  0  0  0
 21 22  1  0  0  0  0
 21 46  1  0  0  0  0
 22 47  1  0  0  0  0
 23 25  1  0  0  0  0
 23 26  1  0  0  0  0
 24 48  1  0  0  0  0
 25 29  2  0  0  0  0
 25 31  1  0  0  0  0
 26 49  1  0  0  0  0
 27 50  1  0  0  0  0
 27 51  1  0  0  0  0
 27 52  1  0  0  0  0
 28 53  1  0  0  0  0
 28 54  1  0  0  0  0
 28 55  1  0  0  0  0
 29 30  1  0  0  0  0
 29 56  1  0  0  0  0
 30 32  2  0  0  0  0
 30 34  1  0  0  0  0
 31 33  2  0  0  0  0
 31 59  1  0  0  0  0
 32 33  1  0  0  0  0
 32 35  1  0  0  0  0
 33 60  1  0  0  0  0
 34 36  2  0  0  0  0
 34 61  1  0  0  0  0
 35 62  1  0  0  0  0
 36 63  1  0  0  0  0
M  END
> <PUBCHEM_COMPOUND_CID>
10391182

> <PUBCHEM_COMPOUND_CANONICALIZED>
1

> <PUBCHEM_CACTVS_COMPLEXITY>
817

> <PUBCHEM_CACTVS_HBOND_ACCEPTOR>
7

> <PUBCHEM_CACTVS_HBOND_DONOR>
1

> <PUBCHEM_CACTVS_ROTATABLE_BOND>
7

> <PUBCHEM_CACTVS_SUBSKEYS>
AAADceB7sABAAAAAAAAAAAAAAAAAAAAAAAA8eMECAAAAAADx/AAAHAQQQAAADAjBWgQ+wdNIEAKgAjRnRHDCgDAxEiAI2Lg4dJgIYOLAkZGUIAhgkADIyAcQgMAOwAACwAAWAACAAAWAACwAAAAAAAAAAA==

> <PUBCHEM_IUPAC_OPENEYE_NAME>
N-(2-aminoethyl)-5-(dimethylamino)-N-[5-(6-isoquinolyl)-3-pyridyl]naphthalene-1-sulfonamide

> <PUBCHEM_IUPAC_CAS_NAME>
N-(2-aminoethyl)-5-(dimethylamino)-N-[5-(6-isoquinolinyl)-3-pyridinyl]-1-naphthalenesulfonamide

> <PUBCHEM_IUPAC_NAME_MARKUP>
<I>N</I>-(2-aminoethyl)-5-(dimethylamino)-<I>N</I>-(5-isoquinolin-6-ylpyridin-3-yl)naphthalene-1-sulfonamide

> <PUBCHEM_IUPAC_NAME>
N-(2-aminoethyl)-5-(dimethylamino)-N-(5-isoquinolin-6-ylpyridin-3-yl)naphthalene-1-sulfonamide

> <PUBCHEM_IUPAC_SYSTEMATIC_NAME>
N-(2-azanylethyl)-5-(dimethylamino)-N-(5-isoquinolin-6-ylpyridin-3-yl)naphthalene-1-sulfonamide

> <PUBCHEM_IUPAC_TRADITIONAL_NAME>
N-(2-aminoethyl)-5-(dimethylamino)-N-[5-(6-isoquinolyl)-3-pyridyl]naphthalene-1-sulfonamide

> <PUBCHEM_IUPAC_INCHI>
InChI=1S/C28H27N5O2S/c1-32(2)27-7-3-6-26-25(27)5-4-8-28(26)36(34,35)33(14-12-29)24-16-23(18-31-19-24)20-9-10-22-17-30-13-11-21(22)15-20/h3-11,13,15-19H,12,14,29H2,1-2H3

> <PUBCHEM_IUPAC_INCHIKEY>
XMFUGSRATNLPRM-UHFFFAOYSA-N

> <PUBCHEM_XLOGP3_AA>
3.8

> <PUBCHEM_EXACT_MASS>
497.18854629

> <PUBCHEM_MOLECULAR_FORMULA>
C28H27N5O2S

> <PUBCHEM_MOLECULAR_WEIGHT>
497.6

> <PUBCHEM_SMILES>
CN(C)C1=CC=CC2=C1C=CC=C2S(=O)(=O)N(CCN)C3=CN=CC(=C3)C4=CC5=C(C=C4)C=NC=C5

> <PUBCHEM_OPENEYE_CAN_SMILES>
CN(C)C1=CC=CC2=C1C=CC=C2S(=O)(=O)N(CCN)C3=CN=CC(=C3)C4=CC5=C(C=C4)C=NC=C5

> <PUBCHEM_OPENEYE_ISO_SMILES>
CN(C)C1=CC=CC2=C1C=CC=C2S(=O)(=O)N(CCN)C3=CN=CC(=C3)C4=CC5=C(C=C4)C=NC=C5

> <PUBCHEM_CACTVS_TPSA>
101

> <PUBCHEM_MONOISOTOPIC_WEIGHT>
497.18854629

> <PUBCHEM_TOTAL_CHARGE>
0

> <PUBCHEM_HEAVY_ATOM_COUNT>
36

> <PUBCHEM_ATOM_DEF_STEREO_COUNT>
0

> <PUBCHEM_ATOM_UDEF_STEREO_COUNT>
0

> <PUBCHEM_BOND_DEF_STEREO_COUNT>
0

> <PUBCHEM_BOND_UDEF_STEREO_COUNT>
0

> <PUBCHEM_ISOTOPIC_ATOM_COUNT>
0

> <PUBCHEM_COMPONENT_COUNT>
1

> <PUBCHEM_CACTVS_TAUTO_COUNT>
-1

> <PUBCHEM_COORDINATE_TYPE>
1
5
255

> <PUBCHEM_BONDANNOTATIONS>
10  11  8
10  16  8
11  14  8
11  17  8
13  20  8
13  24  8
14  21  8
15  19  8
16  22  8
17  19  8
20  23  8
21  22  8
23  26  8
25  29  8
25  31  8
29  30  8
30  32  8
30  34  8
31  33  8
32  33  8
32  35  8
34  36  8
7  24  8
7  26  8
8  35  8
8  36  8
9  10  8
9  15  8

$$$$
