24905319
  -OEChem-03202500022D

 37 40  0     1  0  0  0  0  0999 V2000
    5.9209    3.9900    0.0000 F   0  0  0  0  0  0  0  0  0  0  0  0
    5.9422   -3.6794    0.0000 O   0  0  0  0  0  0  0  0  0  0  0  0
    7.2566    2.5014    0.0000 O   0  0  0  0  0  0  0  0  0  0  0  0
    4.6783   -1.4215    0.0000 N   0  0  0  0  0  0  0  0  0  0  0  0
    5.2619   -0.6168    0.0000 N   0  0  0  0  0  0  0  0  0  0  0  0
    2.8660   -1.6168    0.0000 N   0  0  0  0  0  0  0  0  0  0  0  0
    2.0000   -0.1168    0.0000 N   0  0  0  0  0  0  0  0  0  0  0  0
    2.8660    1.3832    0.0000 N   0  0  0  0  0  0  0  0  0  0  0  0
    4.9889   -2.3720    0.0000 C   0  0  1  0  0  0  0  0  0  0  0  0
    4.4026   -3.1820    0.0000 C   0  0  0  0  0  0  0  0  0  0  0  0
    5.9405   -2.6794    0.0000 C   0  0  0  0  0  0  0  0  0  0  0  0
    4.9917   -3.9900    0.0000 C   0  0  0  0  0  0  0  0  0  0  0  0
    3.7320   -1.1168    0.0000 C   0  0  0  0  0  0  0  0  0  0  0  0
    3.7320   -0.1168    0.0000 C   0  0  0  0  0  0  0  0  0  0  0  0
    4.6783    0.1880    0.0000 C   0  0  0  0  0  0  0  0  0  0  0  0
    4.9889    1.1385    0.0000 C   0  0  0  0  0  0  0  0  0  0  0  0
    2.8660    0.3832    0.0000 C   0  0  0  0  0  0  0  0  0  0  0  0
    5.9674    1.3447    0.0000 C   0  0  0  0  0  0  0  0  0  0  0  0
    4.3211    1.8828    0.0000 C   0  0  0  0  0  0  0  0  0  0  0  0
    2.0000   -1.1168    0.0000 C   0  0  0  0  0  0  0  0  0  0  0  0
    6.2781    2.2952    0.0000 C   0  0  0  0  0  0  0  0  0  0  0  0
    4.6318    2.8333    0.0000 C   0  0  0  0  0  0  0  0  0  0  0  0
    5.6103    3.0395    0.0000 C   0  0  0  0  0  0  0  0  0  0  0  0
    5.4266   -1.9328    0.0000 H   0  0  0  0  0  0  0  0  0  0  0  0
    3.9411   -2.7680    0.0000 H   0  0  0  0  0  0  0  0  0  0  0  0
    3.9425   -3.5977    0.0000 H   0  0  0  0  0  0  0  0  0  0  0  0
    6.5572   -2.7431    0.0000 H   0  0  0  0  0  0  0  0  0  0  0  0
    6.0684   -2.0727    0.0000 H   0  0  0  0  0  0  0  0  0  0  0  0
    4.4553   -4.3010    0.0000 H   0  0  0  0  0  0  0  0  0  0  0  0
    5.2449   -4.5560    0.0000 H   0  0  0  0  0  0  0  0  0  0  0  0
    6.3815    0.8832    0.0000 H   0  0  0  0  0  0  0  0  0  0  0  0
    3.7144    1.7549    0.0000 H   0  0  0  0  0  0  0  0  0  0  0  0
    1.4631   -1.4268    0.0000 H   0  0  0  0  0  0  0  0  0  0  0  0
    2.3291    1.6932    0.0000 H   0  0  0  0  0  0  0  0  0  0  0  0
    3.4030    1.6932    0.0000 H   0  0  0  0  0  0  0  0  0  0  0  0
    4.2177    3.2948    0.0000 H   0  0  0  0  0  0  0  0  0  0  0  0
    7.6707    2.0400    0.0000 H   0  0  0  0  0  0  0  0  0  0  0  0
  1 23  1  0  0  0  0
  2 11  1  0  0  0  0
  2 12  1  0  0  0  0
  3 21  1  0  0  0  0
  3 37  1  0  0  0  0
  4  5  1  0  0  0  0
  9  4  1  6  0  0  0
  4 13  1  0  0  0  0
  5 15  2  0  0  0  0
  6 13  2  0  0  0  0
  6 20  1  0  0  0  0
  7 17  1  0  0  0  0
  7 20  2  0  0  0  0
  8 17  1  0  0  0  0
  8 34  1  0  0  0  0
  8 35  1  0  0  0  0
  9 10  1  0  0  0  0
  9 11  1  0  0  0  0
  9 24  1  0  0  0  0
 10 12  1  0  0  0  0
 10 25  1  0  0  0  0
 10 26  1  0  0  0  0
 11 27  1  0  0  0  0
 11 28  1  0  0  0  0
 12 29  1  0  0  0  0
 12 30  1  0  0  0  0
 13 14  1  0  0  0  0
 14 15  1  0  0  0  0
 14 17  2  0  0  0  0
 15 16  1  0  0  0  0
 16 18  2  0  0  0  0
 16 19  1  0  0  0  0
 18 21  1  0  0  0  0
 18 31  1  0  0  0  0
 19 22  2  0  0  0  0
 19 32  1  0  0  0  0
 20 33  1  0  0  0  0
 21 23  2  0  0  0  0
 22 23  1  0  0  0  0
 22 36  1  0  0  0  0
M  END
> <PUBCHEM_COMPOUND_CID>
24905319

> <PUBCHEM_COMPOUND_CANONICALIZED>
1

> <PUBCHEM_CACTVS_COMPLEXITY>
431

> <PUBCHEM_CACTVS_HBOND_ACCEPTOR>
7

> <PUBCHEM_CACTVS_HBOND_DONOR>
2

> <PUBCHEM_CACTVS_ROTATABLE_BOND>
2

> <PUBCHEM_CACTVS_SUBSKEYS>
AAADccBzsQAAAAAAAAAAAAAAAAAAAWJAAAA8QAAAAAAAAFgB/AAAHwAYCAAADCzhnw41tt5IFgCiAyZjZACShCsxoKAd2CAuTJiKLqLC2dOH9AhuyBPY2CewwPAOAAABAAAAAAAAAAIAAAAAAAAAAAAAAA==

> <PUBCHEM_IUPAC_OPENEYE_NAME>
5-[4-amino-1-[(3S)-tetrahydrofuran-3-yl]pyrazolo[3,4-d]pyrimidin-3-yl]-2-fluoro-phenol

> <PUBCHEM_IUPAC_CAS_NAME>
5-[4-amino-1-[(3S)-3-oxolanyl]-3-pyrazolo[3,4-d]pyrimidinyl]-2-fluorophenol

> <PUBCHEM_IUPAC_NAME_MARKUP>
5-[4-amino-1-[(3<I>S</I>)-oxolan-3-yl]pyrazolo[3,4-d]pyrimidin-3-yl]-2-fluorophenol

> <PUBCHEM_IUPAC_NAME>
5-[4-amino-1-[(3S)-oxolan-3-yl]pyrazolo[3,4-d]pyrimidin-3-yl]-2-fluorophenol

> <PUBCHEM_IUPAC_SYSTEMATIC_NAME>
5-[4-azanyl-1-[(3S)-oxolan-3-yl]pyrazolo[3,4-d]pyrimidin-3-yl]-2-fluoranyl-phenol

> <PUBCHEM_IUPAC_TRADITIONAL_NAME>
5-[4-amino-1-[(3S)-tetrahydrofuran-3-yl]pyrazolo[3,4-d]pyrimidin-3-yl]-2-fluoro-phenol

> <PUBCHEM_IUPAC_INCHI>
InChI=1S/C15H14FN5O2/c16-10-2-1-8(5-11(10)22)13-12-14(17)18-7-19-15(12)21(20-13)9-3-4-23-6-9/h1-2,5,7,9,22H,3-4,6H2,(H2,17,18,19)/t9-/m0/s1

> <PUBCHEM_IUPAC_INCHIKEY>
MRZVUZUMBCEAGI-VIFPVBQESA-N

> <PUBCHEM_XLOGP3_AA>
1.2

> <PUBCHEM_EXACT_MASS>
315.11315287

> <PUBCHEM_MOLECULAR_FORMULA>
C15H14FN5O2

> <PUBCHEM_MOLECULAR_WEIGHT>
315.30

> <PUBCHEM_SMILES>
C1COC[C@H]1N2C3=NC=NC(=C3C(=N2)C4=CC(=C(C=C4)F)O)N

> <PUBCHEM_OPENEYE_CAN_SMILES>
C1COCC1N2C3=NC=NC(=C3C(=N2)C4=CC(=C(C=C4)F)O)N

> <PUBCHEM_OPENEYE_ISO_SMILES>
C1COC[C@H]1N2C3=NC=NC(=C3C(=N2)C4=CC(=C(C=C4)F)O)N

> <PUBCHEM_CACTVS_TPSA>
99.1

> <PUBCHEM_MONOISOTOPIC_WEIGHT>
315.11315287

> <PUBCHEM_TOTAL_CHARGE>
0

> <PUBCHEM_HEAVY_ATOM_COUNT>
23

> <PUBCHEM_ATOM_DEF_STEREO_COUNT>
1

> <PUBCHEM_ATOM_UDEF_STEREO_COUNT>
0

> <PUBCHEM_BOND_DEF_STEREO_COUNT>
0

> <PUBCHEM_BOND_UDEF_STEREO_COUNT>
0

> <PUBCHEM_ISOTOPIC_ATOM_COUNT>
0

> <PUBCHEM_COMPONENT_COUNT>
1

> <PUBCHEM_CACTVS_TAUTO_COUNT>
-1

> <PUBCHEM_COORDINATE_TYPE>
1
5
255

> <PUBCHEM_BONDANNOTATIONS>
13  14  8
14  15  8
14  17  8
16  18  8
16  19  8
18  21  8
19  22  8
21  23  8
22  23  8
4  13  8
4  5  8
9  4  6
5  15  8
6  13  8
6  20  8
7  17  8
7  20  8

$$$$
