23536094
  -OEChem-03202503112D

 55 58  0     0  0  0  0  0  0999 V2000
    6.3301   -3.2673    0.0000 O   0  0  0  0  0  0  0  0  0  0  0  0
    2.8660   -3.2673    0.0000 O   0  0  0  0  0  0  0  0  0  0  0  0
    4.5981   -4.2673    0.0000 O   0  0  0  0  0  0  0  0  0  0  0  0
    6.3301    2.7327    0.0000 N   0  0  0  0  0  0  0  0  0  0  0  0
    5.4641    1.2327    0.0000 N   0  0  0  0  0  0  0  0  0  0  0  0
    7.1962    1.2327    0.0000 N   0  0  0  0  0  0  0  0  0  0  0  0
    4.5981   -0.2673    0.0000 N   0  0  0  0  0  0  0  0  0  0  0  0
    6.3301   -0.2673    0.0000 N   0  0  0  0  0  0  0  0  0  0  0  0
    7.1962    4.2327    0.0000 C   0  0  0  0  0  0  0  0  0  0  0  0
    6.3301    4.7327    0.0000 C   0  0  0  0  0  0  0  0  0  0  0  0
    7.1962    3.2327    0.0000 C   0  0  0  0  0  0  0  0  0  0  0  0
    5.4641    4.2327    0.0000 C   0  0  0  0  0  0  0  0  0  0  0  0
    5.4641    3.2327    0.0000 C   0  0  0  0  0  0  0  0  0  0  0  0
    4.5702    4.7673    0.0000 C   0  0  0  0  0  0  0  0  0  0  0  0
    4.5702    2.6980    0.0000 C   0  0  0  0  0  0  0  0  0  0  0  0
    3.6641    4.2535    0.0000 C   0  0  0  0  0  0  0  0  0  0  0  0
    6.3301    1.7327    0.0000 C   0  0  0  0  0  0  0  0  0  0  0  0
    3.6641    3.2118    0.0000 C   0  0  0  0  0  0  0  0  0  0  0  0
    2.8000    4.7568    0.0000 C   0  0  0  0  0  0  0  0  0  0  0  0
    5.4641    0.2327    0.0000 C   0  0  0  0  0  0  0  0  0  0  0  0
    7.1962    0.2327    0.0000 C   0  0  0  0  0  0  0  0  0  0  0  0
    4.5981   -1.2673    0.0000 C   0  0  0  0  0  0  0  0  0  0  0  0
    3.7320   -1.7673    0.0000 C   0  0  0  0  0  0  0  0  0  0  0  0
    5.4641   -1.7673    0.0000 C   0  0  0  0  0  0  0  0  0  0  0  0
    5.4641   -2.7673    0.0000 C   0  0  0  0  0  0  0  0  0  0  0  0
    3.7320   -2.7673    0.0000 C   0  0  0  0  0  0  0  0  0  0  0  0
    4.5981   -3.2673    0.0000 C   0  0  0  0  0  0  0  0  0  0  0  0
    6.3301   -4.2673    0.0000 C   0  0  0  0  0  0  0  0  0  0  0  0
    2.0000   -2.7673    0.0000 C   0  0  0  0  0  0  0  0  0  0  0  0
    3.7320   -4.7673    0.0000 C   0  0  0  0  0  0  0  0  0  0  0  0
    7.8067    4.1250    0.0000 H   0  0  0  0  0  0  0  0  0  0  0  0
    7.4082    4.8153    0.0000 H   0  0  0  0  0  0  0  0  0  0  0  0
    6.7287    5.2076    0.0000 H   0  0  0  0  0  0  0  0  0  0  0  0
    5.9316    5.2076    0.0000 H   0  0  0  0  0  0  0  0  0  0  0  0
    7.4082    2.6501    0.0000 H   0  0  0  0  0  0  0  0  0  0  0  0
    7.8067    3.3403    0.0000 H   0  0  0  0  0  0  0  0  0  0  0  0
    4.5773    5.3873    0.0000 H   0  0  0  0  0  0  0  0  0  0  0  0
    4.5773    2.0780    0.0000 H   0  0  0  0  0  0  0  0  0  0  0  0
    3.1284    2.8998    0.0000 H   0  0  0  0  0  0  0  0  0  0  0  0
    3.1121    5.2926    0.0000 H   0  0  0  0  0  0  0  0  0  0  0  0
    2.2643    5.0689    0.0000 H   0  0  0  0  0  0  0  0  0  0  0  0
    2.4879    4.2211    0.0000 H   0  0  0  0  0  0  0  0  0  0  0  0
    7.7331   -0.0773    0.0000 H   0  0  0  0  0  0  0  0  0  0  0  0
    4.0611    0.0427    0.0000 H   0  0  0  0  0  0  0  0  0  0  0  0
    3.1951   -1.4573    0.0000 H   0  0  0  0  0  0  0  0  0  0  0  0
    6.0010   -1.4573    0.0000 H   0  0  0  0  0  0  0  0  0  0  0  0
    5.7101   -4.2673    0.0000 H   0  0  0  0  0  0  0  0  0  0  0  0
    6.3301   -4.8873    0.0000 H   0  0  0  0  0  0  0  0  0  0  0  0
    6.9501   -4.2673    0.0000 H   0  0  0  0  0  0  0  0  0  0  0  0
    2.3100   -2.2304    0.0000 H   0  0  0  0  0  0  0  0  0  0  0  0
    1.4631   -2.4573    0.0000 H   0  0  0  0  0  0  0  0  0  0  0  0
    1.6900   -3.3043    0.0000 H   0  0  0  0  0  0  0  0  0  0  0  0
    3.4220   -4.2304    0.0000 H   0  0  0  0  0  0  0  0  0  0  0  0
    3.1951   -5.0773    0.0000 H   0  0  0  0  0  0  0  0  0  0  0  0
    4.0420   -5.3043    0.0000 H   0  0  0  0  0  0  0  0  0  0  0  0
  1 25  1  0  0  0  0
  1 28  1  0  0  0  0
  2 26  1  0  0  0  0
  2 29  1  0  0  0  0
  3 27  1  0  0  0  0
  3 30  1  0  0  0  0
  4 11  1  0  0  0  0
  4 13  1  0  0  0  0
  4 17  1  0  0  0  0
  5 17  1  0  0  0  0
  5 20  2  0  0  0  0
  6 17  2  0  0  0  0
  6 21  1  0  0  0  0
  7 20  1  0  0  0  0
  7 22  1  0  0  0  0
  7 44  1  0  0  0  0
  8 20  1  0  0  0  0
  8 21  2  0  0  0  0
  9 10  1  0  0  0  0
  9 11  1  0  0  0  0
  9 31  1  0  0  0  0
  9 32  1  0  0  0  0
 10 12  1  0  0  0  0
 10 33  1  0  0  0  0
 10 34  1  0  0  0  0
 11 35  1  0  0  0  0
 11 36  1  0  0  0  0
 12 13  2  0  0  0  0
 12 14  1  0  0  0  0
 13 15  1  0  0  0  0
 14 16  2  0  0  0  0
 14 37  1  0  0  0  0
 15 18  2  0  0  0  0
 15 38  1  0  0  0  0
 16 18  1  0  0  0  0
 16 19  1  0  0  0  0
 18 39  1  0  0  0  0
 19 40  1  0  0  0  0
 19 41  1  0  0  0  0
 19 42  1  0  0  0  0
 21 43  1  0  0  0  0
 22 23  2  0  0  0  0
 22 24  1  0  0  0  0
 23 26  1  0  0  0  0
 23 45  1  0  0  0  0
 24 25  2  0  0  0  0
 24 46  1  0  0  0  0
 25 27  1  0  0  0  0
 26 27  2  0  0  0  0
 28 47  1  0  0  0  0
 28 48  1  0  0  0  0
 28 49  1  0  0  0  0
 29 50  1  0  0  0  0
 29 51  1  0  0  0  0
 29 52  1  0  0  0  0
 30 53  1  0  0  0  0
 30 54  1  0  0  0  0
 30 55  1  0  0  0  0
M  END
> <PUBCHEM_COMPOUND_CID>
23536094

> <PUBCHEM_COMPOUND_CANONICALIZED>
1

> <PUBCHEM_CACTVS_COMPLEXITY>
527

> <PUBCHEM_CACTVS_HBOND_ACCEPTOR>
8

> <PUBCHEM_CACTVS_HBOND_DONOR>
1

> <PUBCHEM_CACTVS_ROTATABLE_BOND>
6

> <PUBCHEM_CACTVS_SUBSKEYS>
AAADceB7sAAAAAAAAAAAAAAAAAAAAAAAAAA8eIEAAAAAAACx0AAAHgAQAAAADAzBmAY31ofIFACgAiRDZACCCAkxIoAJyAAO7IiNLyLEuZuEMCpv0B/K6Cew8M8OCEACCgACQAAQgAQUAASAAAAAAAAAAA==

> <PUBCHEM_IUPAC_OPENEYE_NAME>
4-(6-methyl-3,4-dihydro-2H-quinolin-1-yl)-N-(3,4,5-trimethoxyphenyl)-1,3,5-triazin-2-amine

> <PUBCHEM_IUPAC_CAS_NAME>
4-(6-methyl-3,4-dihydro-2H-quinolin-1-yl)-N-(3,4,5-trimethoxyphenyl)-1,3,5-triazin-2-amine

> <PUBCHEM_IUPAC_NAME_MARKUP>
4-(6-methyl-3,4-dihydro-2<I>H</I>-quinolin-1-yl)-<I>N</I>-(3,4,5-trimethoxyphenyl)-1,3,5-triazin-2-amine

> <PUBCHEM_IUPAC_NAME>
4-(6-methyl-3,4-dihydro-2H-quinolin-1-yl)-N-(3,4,5-trimethoxyphenyl)-1,3,5-triazin-2-amine

> <PUBCHEM_IUPAC_SYSTEMATIC_NAME>
4-(6-methyl-3,4-dihydro-2H-quinolin-1-yl)-N-(3,4,5-trimethoxyphenyl)-1,3,5-triazin-2-amine

> <PUBCHEM_IUPAC_TRADITIONAL_NAME>
[4-(6-methyl-3,4-dihydro-2H-quinolin-1-yl)-s-triazin-2-yl]-(3,4,5-trimethoxyphenyl)amine

> <PUBCHEM_IUPAC_INCHI>
InChI=1S/C22H25N5O3/c1-14-7-8-17-15(10-14)6-5-9-27(17)22-24-13-23-21(26-22)25-16-11-18(28-2)20(30-4)19(12-16)29-3/h7-8,10-13H,5-6,9H2,1-4H3,(H,23,24,25,26)

> <PUBCHEM_IUPAC_INCHIKEY>
AQKQATGZIKRZMQ-UHFFFAOYSA-N

> <PUBCHEM_XLOGP3_AA>
4.5

> <PUBCHEM_EXACT_MASS>
407.19573968

> <PUBCHEM_MOLECULAR_FORMULA>
C22H25N5O3

> <PUBCHEM_MOLECULAR_WEIGHT>
407.5

> <PUBCHEM_SMILES>
CC1=CC2=C(C=C1)N(CCC2)C3=NC=NC(=N3)NC4=CC(=C(C(=C4)OC)OC)OC

> <PUBCHEM_OPENEYE_CAN_SMILES>
CC1=CC2=C(C=C1)N(CCC2)C3=NC=NC(=N3)NC4=CC(=C(C(=C4)OC)OC)OC

> <PUBCHEM_OPENEYE_ISO_SMILES>
CC1=CC2=C(C=C1)N(CCC2)C3=NC=NC(=N3)NC4=CC(=C(C(=C4)OC)OC)OC

> <PUBCHEM_CACTVS_TPSA>
81.6

> <PUBCHEM_MONOISOTOPIC_WEIGHT>
407.19573968

> <PUBCHEM_TOTAL_CHARGE>
0

> <PUBCHEM_HEAVY_ATOM_COUNT>
30

> <PUBCHEM_ATOM_DEF_STEREO_COUNT>
0

> <PUBCHEM_ATOM_UDEF_STEREO_COUNT>
0

> <PUBCHEM_BOND_DEF_STEREO_COUNT>
0

> <PUBCHEM_BOND_UDEF_STEREO_COUNT>
0

> <PUBCHEM_ISOTOPIC_ATOM_COUNT>
0

> <PUBCHEM_COMPONENT_COUNT>
1

> <PUBCHEM_CACTVS_TAUTO_COUNT>
-1

> <PUBCHEM_COORDINATE_TYPE>
1
5
255

> <PUBCHEM_BONDANNOTATIONS>
12  13  8
12  14  8
13  15  8
14  16  8
15  18  8
16  18  8
22  23  8
22  24  8
23  26  8
24  25  8
25  27  8
26  27  8
5  17  8
5  20  8
6  17  8
6  21  8
8  20  8
8  21  8

$$$$
