49830338
  -OEChem-03202503152D

 38 41  0     0  0  0  0  0  0999 V2000
    3.9639    2.1756    0.0000 Cl  0  0  0  0  0  0  0  0  0  0  0  0
    6.8994    2.7942    0.0000 O   0  0  0  0  0  0  0  0  0  0  0  0
    4.6783   -2.8236    0.0000 N   0  0  0  0  0  0  0  0  0  0  0  0
    2.8660   -3.0188    0.0000 N   0  0  0  0  0  0  0  0  0  0  0  0
    7.2566    1.0994    0.0000 N   0  0  0  0  0  0  0  0  0  0  0  0
    5.6103    1.6375    0.0000 N   0  0  0  0  0  0  0  0  0  0  0  0
    4.6783   -1.2141    0.0000 C   0  0  0  0  0  0  0  0  0  0  0  0
    3.7320   -1.5188    0.0000 C   0  0  0  0  0  0  0  0  0  0  0  0
    4.9889   -0.2636    0.0000 C   0  0  0  0  0  0  0  0  0  0  0  0
    3.7320   -2.5188    0.0000 C   0  0  0  0  0  0  0  0  0  0  0  0
    5.2619   -2.0188    0.0000 C   0  0  0  0  0  0  0  0  0  0  0  0
    2.8660   -1.0188    0.0000 C   0  0  0  0  0  0  0  0  0  0  0  0
    5.9674   -0.0573    0.0000 C   0  0  0  0  0  0  0  0  0  0  0  0
    4.3211    0.4807    0.0000 C   0  0  0  0  0  0  0  0  0  0  0  0
    6.2781    0.8932    0.0000 C   0  0  0  0  0  0  0  0  0  0  0  0
    2.0000   -1.5188    0.0000 C   0  0  0  0  0  0  0  0  0  0  0  0
    4.6318    1.4313    0.0000 C   0  0  0  0  0  0  0  0  0  0  0  0
    2.0000   -2.5188    0.0000 C   0  0  0  0  0  0  0  0  0  0  0  0
    7.5673    2.0499    0.0000 C   0  0  0  0  0  0  0  0  0  0  0  0
    8.5458    2.2561    0.0000 C   0  0  0  0  0  0  0  0  0  0  0  0
    9.2136    1.5118    0.0000 C   0  0  0  0  0  0  0  0  0  0  0  0
    8.8564    3.2066    0.0000 C   0  0  0  0  0  0  0  0  0  0  0  0
   10.1921    1.7180    0.0000 C   0  0  0  0  0  0  0  0  0  0  0  0
    9.8349    3.4129    0.0000 C   0  0  0  0  0  0  0  0  0  0  0  0
   10.5028    2.6686    0.0000 C   0  0  0  0  0  0  0  0  0  0  0  0
    5.8819   -2.0188    0.0000 H   0  0  0  0  0  0  0  0  0  0  0  0
    4.8709   -3.4129    0.0000 H   0  0  0  0  0  0  0  0  0  0  0  0
    6.3815   -0.5188    0.0000 H   0  0  0  0  0  0  0  0  0  0  0  0
    2.8660   -0.3988    0.0000 H   0  0  0  0  0  0  0  0  0  0  0  0
    3.7144    0.3529    0.0000 H   0  0  0  0  0  0  0  0  0  0  0  0
    1.4631   -1.2088    0.0000 H   0  0  0  0  0  0  0  0  0  0  0  0
    1.4631   -2.8288    0.0000 H   0  0  0  0  0  0  0  0  0  0  0  0
    7.6707    0.6379    0.0000 H   0  0  0  0  0  0  0  0  0  0  0  0
    9.0210    0.9225    0.0000 H   0  0  0  0  0  0  0  0  0  0  0  0
    8.4424    3.6681    0.0000 H   0  0  0  0  0  0  0  0  0  0  0  0
   10.6062    1.2566    0.0000 H   0  0  0  0  0  0  0  0  0  0  0  0
   10.0276    4.0022    0.0000 H   0  0  0  0  0  0  0  0  0  0  0  0
   11.1095    2.7964    0.0000 H   0  0  0  0  0  0  0  0  0  0  0  0
  1 17  1  0  0  0  0
  2 19  2  0  0  0  0
  3 10  1  0  0  0  0
  3 11  1  0  0  0  0
  3 27  1  0  0  0  0
  4 10  1  0  0  0  0
  4 18  2  0  0  0  0
  5 15  1  0  0  0  0
  5 19  1  0  0  0  0
  5 33  1  0  0  0  0
  6 15  2  0  0  0  0
  6 17  1  0  0  0  0
  7  8  1  0  0  0  0
  7  9  1  0  0  0  0
  7 11  2  0  0  0  0
  8 10  2  0  0  0  0
  8 12  1  0  0  0  0
  9 13  2  0  0  0  0
  9 14  1  0  0  0  0
 11 26  1  0  0  0  0
 12 16  2  0  0  0  0
 12 29  1  0  0  0  0
 13 15  1  0  0  0  0
 13 28  1  0  0  0  0
 14 17  2  0  0  0  0
 14 30  1  0  0  0  0
 16 18  1  0  0  0  0
 16 31  1  0  0  0  0
 18 32  1  0  0  0  0
 19 20  1  0  0  0  0
 20 21  2  0  0  0  0
 20 22  1  0  0  0  0
 21 23  1  0  0  0  0
 21 34  1  0  0  0  0
 22 24  2  0  0  0  0
 22 35  1  0  0  0  0
 23 25  2  0  0  0  0
 23 36  1  0  0  0  0
 24 25  1  0  0  0  0
 24 37  1  0  0  0  0
 25 38  1  0  0  0  0
M  END
> <PUBCHEM_COMPOUND_CID>
49830338

> <PUBCHEM_COMPOUND_CANONICALIZED>
1

> <PUBCHEM_CACTVS_COMPLEXITY>
470

> <PUBCHEM_CACTVS_HBOND_ACCEPTOR>
3

> <PUBCHEM_CACTVS_HBOND_DONOR>
2

> <PUBCHEM_CACTVS_ROTATABLE_BOND>
3

> <PUBCHEM_CACTVS_SUBSKEYS>
AAADccB7oAAEAAAAAAAAAAAAAAAAAWAAAAA8WIAAAAAAAFgB/gAAHgIQAAAADALBmyQ9sN7JkACoAjN3dACCgCm1B6AJ2aE4ZtiIKPLBn5GEIQholQLIyacYiMCOgAAAAAAAAAAAAAAAAAAAAAAAAAAAAA==

> <PUBCHEM_IUPAC_OPENEYE_NAME>
N-[6-chloro-4-(1H-pyrrolo[2,3-b]pyridin-3-yl)-2-pyridyl]benzamide

> <PUBCHEM_IUPAC_CAS_NAME>
N-[6-chloro-4-(1H-pyrrolo[2,3-b]pyridin-3-yl)-2-pyridinyl]benzamide

> <PUBCHEM_IUPAC_NAME_MARKUP>
<I>N</I>-[6-chloro-4-(1<I>H</I>-pyrrolo[2,3-b]pyridin-3-yl)pyridin-2-yl]benzamide

> <PUBCHEM_IUPAC_NAME>
N-[6-chloro-4-(1H-pyrrolo[2,3-b]pyridin-3-yl)pyridin-2-yl]benzamide

> <PUBCHEM_IUPAC_SYSTEMATIC_NAME>
N-[6-chloranyl-4-(1H-pyrrolo[2,3-b]pyridin-3-yl)pyridin-2-yl]benzamide

> <PUBCHEM_IUPAC_TRADITIONAL_NAME>
N-[6-chloro-4-(1H-pyrrolo[2,3-b]pyridin-3-yl)-2-pyridyl]benzamide

> <PUBCHEM_IUPAC_INCHI>
InChI=1S/C19H13ClN4O/c20-16-9-13(15-11-22-18-14(15)7-4-8-21-18)10-17(23-16)24-19(25)12-5-2-1-3-6-12/h1-11H,(H,21,22)(H,23,24,25)

> <PUBCHEM_IUPAC_INCHIKEY>
JFKIXRTUZAZONT-UHFFFAOYSA-N

> <PUBCHEM_XLOGP3_AA>
4

> <PUBCHEM_EXACT_MASS>
348.0777887

> <PUBCHEM_MOLECULAR_FORMULA>
C19H13ClN4O

> <PUBCHEM_MOLECULAR_WEIGHT>
348.8

> <PUBCHEM_SMILES>
C1=CC=C(C=C1)C(=O)NC2=NC(=CC(=C2)C3=CNC4=C3C=CC=N4)Cl

> <PUBCHEM_OPENEYE_CAN_SMILES>
C1=CC=C(C=C1)C(=O)NC2=NC(=CC(=C2)C3=CNC4=C3C=CC=N4)Cl

> <PUBCHEM_OPENEYE_ISO_SMILES>
C1=CC=C(C=C1)C(=O)NC2=NC(=CC(=C2)C3=CNC4=C3C=CC=N4)Cl

> <PUBCHEM_CACTVS_TPSA>
70.7

> <PUBCHEM_MONOISOTOPIC_WEIGHT>
348.0777887

> <PUBCHEM_TOTAL_CHARGE>
0

> <PUBCHEM_HEAVY_ATOM_COUNT>
25

> <PUBCHEM_ATOM_DEF_STEREO_COUNT>
0

> <PUBCHEM_ATOM_UDEF_STEREO_COUNT>
0

> <PUBCHEM_BOND_DEF_STEREO_COUNT>
0

> <PUBCHEM_BOND_UDEF_STEREO_COUNT>
0

> <PUBCHEM_ISOTOPIC_ATOM_COUNT>
0

> <PUBCHEM_COMPONENT_COUNT>
1

> <PUBCHEM_CACTVS_TAUTO_COUNT>
-1

> <PUBCHEM_COORDINATE_TYPE>
1
5
255

> <PUBCHEM_BONDANNOTATIONS>
12  16  8
13  15  8
14  17  8
16  18  8
20  21  8
20  22  8
21  23  8
22  24  8
23  25  8
24  25  8
3  10  8
3  11  8
4  10  8
4  18  8
6  15  8
6  17  8
7  11  8
7  8  8
8  10  8
8  12  8
9  13  8
9  14  8

$$$$
