49830487
  -OEChem-03202504222D

 58 60  0     1  0  0  0  0  0999 V2000
    6.8671    1.7500    0.0000 O   0  0  0  0  0  0  0  0  0  0  0  0
   12.0632    2.7500    0.0000 O   0  0  0  0  0  0  0  0  0  0  0  0
    8.5991    1.7500    0.0000 N   0  0  0  0  0  0  0  0  0  0  0  0
    6.0010    0.2500    0.0000 N   0  0  0  0  0  0  0  0  0  0  0  0
    2.5369    0.2500    0.0000 N   0  0  0  0  0  0  0  0  0  0  0  0
    7.7331   -4.7500    0.0000 N   0  0  0  0  0  0  0  0  0  0  0  0
    8.5991    2.7500    0.0000 C   0  0  3  0  0  0  0  0  0  0  0  0
    6.8671   -0.2500    0.0000 C   0  0  0  0  0  0  0  0  0  0  0  0
    7.7331    0.2500    0.0000 C   0  0  0  0  0  0  0  0  0  0  0  0
    9.4651    3.2500    0.0000 C   0  0  0  0  0  0  0  0  0  0  0  0
    5.1350   -0.2500    0.0000 C   0  0  0  0  0  0  0  0  0  0  0  0
    7.7331    1.2500    0.0000 C   0  0  0  0  0  0  0  0  0  0  0  0
    4.2690    0.2500    0.0000 C   0  0  0  0  0  0  0  0  0  0  0  0
    6.8671   -1.2500    0.0000 C   0  0  0  0  0  0  0  0  0  0  0  0
    7.7331   -1.7500    0.0000 C   0  0  0  0  0  0  0  0  0  0  0  0
    7.7331    3.2500    0.0000 C   0  0  0  0  0  0  0  0  0  0  0  0
    8.5991   -0.2500    0.0000 C   0  0  0  0  0  0  0  0  0  0  0  0
    8.5991   -1.2500    0.0000 C   0  0  0  0  0  0  0  0  0  0  0  0
   10.3312    2.7500    0.0000 C   0  0  0  0  0  0  0  0  0  0  0  0
    9.4651    4.2500    0.0000 C   0  0  0  0  0  0  0  0  0  0  0  0
    3.4030   -0.2500    0.0000 C   0  0  0  0  0  0  0  0  0  0  0  0
    7.7331   -2.7500    0.0000 C   0  0  0  0  0  0  0  0  0  0  0  0
   11.1972    3.2500    0.0000 C   0  0  0  0  0  0  0  0  0  0  0  0
   10.3312    4.7500    0.0000 C   0  0  0  0  0  0  0  0  0  0  0  0
   11.1972    4.2500    0.0000 C   0  0  0  0  0  0  0  0  0  0  0  0
    8.5991   -3.2500    0.0000 C   0  0  0  0  0  0  0  0  0  0  0  0
    6.8671   -3.2500    0.0000 C   0  0  0  0  0  0  0  0  0  0  0  0
    8.5991   -4.2500    0.0000 C   0  0  0  0  0  0  0  0  0  0  0  0
    6.8671   -4.2500    0.0000 C   0  0  0  0  0  0  0  0  0  0  0  0
   12.9292    3.2500    0.0000 C   0  0  0  0  0  0  0  0  0  0  0  0
    8.0622    2.4400    0.0000 H   0  0  0  0  0  0  0  0  0  0  0  0
    4.7365   -0.7249    0.0000 H   0  0  0  0  0  0  0  0  0  0  0  0
    5.5335   -0.7249    0.0000 H   0  0  0  0  0  0  0  0  0  0  0  0
    9.1360    1.4400    0.0000 H   0  0  0  0  0  0  0  0  0  0  0  0
    6.0010    0.8700    0.0000 H   0  0  0  0  0  0  0  0  0  0  0  0
    4.6675    0.7249    0.0000 H   0  0  0  0  0  0  0  0  0  0  0  0
    3.8705    0.7249    0.0000 H   0  0  0  0  0  0  0  0  0  0  0  0
    6.3301   -1.5600    0.0000 H   0  0  0  0  0  0  0  0  0  0  0  0
    8.0431    3.7869    0.0000 H   0  0  0  0  0  0  0  0  0  0  0  0
    7.1962    3.5600    0.0000 H   0  0  0  0  0  0  0  0  0  0  0  0
    7.4231    2.7131    0.0000 H   0  0  0  0  0  0  0  0  0  0  0  0
    9.1360    0.0600    0.0000 H   0  0  0  0  0  0  0  0  0  0  0  0
    9.1360   -1.5600    0.0000 H   0  0  0  0  0  0  0  0  0  0  0  0
   10.3312    2.1300    0.0000 H   0  0  0  0  0  0  0  0  0  0  0  0
    8.9282    4.5600    0.0000 H   0  0  0  0  0  0  0  0  0  0  0  0
    3.0044   -0.7249    0.0000 H   0  0  0  0  0  0  0  0  0  0  0  0
    3.8015   -0.7249    0.0000 H   0  0  0  0  0  0  0  0  0  0  0  0
   10.3312    5.3700    0.0000 H   0  0  0  0  0  0  0  0  0  0  0  0
   11.7341    4.5600    0.0000 H   0  0  0  0  0  0  0  0  0  0  0  0
    9.1360   -2.9400    0.0000 H   0  0  0  0  0  0  0  0  0  0  0  0
    6.3301   -2.9400    0.0000 H   0  0  0  0  0  0  0  0  0  0  0  0
    2.0000   -0.0600    0.0000 H   0  0  0  0  0  0  0  0  0  0  0  0
    2.5369    0.8700    0.0000 H   0  0  0  0  0  0  0  0  0  0  0  0
    9.1360   -4.5600    0.0000 H   0  0  0  0  0  0  0  0  0  0  0  0
    6.3301   -4.5600    0.0000 H   0  0  0  0  0  0  0  0  0  0  0  0
   13.2392    2.7131    0.0000 H   0  0  0  0  0  0  0  0  0  0  0  0
   13.4662    3.5600    0.0000 H   0  0  0  0  0  0  0  0  0  0  0  0
   12.6192    3.7869    0.0000 H   0  0  0  0  0  0  0  0  0  0  0  0
  1 12  2  0  0  0  0
  2 23  1  0  0  0  0
  2 30  1  0  0  0  0
  3  7  1  0  0  0  0
  3 12  1  0  0  0  0
  3 34  1  0  0  0  0
  4  8  1  0  0  0  0
  4 11  1  0  0  0  0
  4 35  1  0  0  0  0
  5 21  1  0  0  0  0
  5 52  1  0  0  0  0
  5 53  1  0  0  0  0
  6 28  2  0  0  0  0
  6 29  1  0  0  0  0
  7 10  1  0  0  0  0
  7 16  1  0  0  0  0
  7 31  1  0  0  0  0
  8  9  2  0  0  0  0
  8 14  1  0  0  0  0
  9 12  1  0  0  0  0
  9 17  1  0  0  0  0
 10 19  2  0  0  0  0
 10 20  1  0  0  0  0
 11 13  1  0  0  0  0
 11 32  1  0  0  0  0
 11 33  1  0  0  0  0
 13 21  1  0  0  0  0
 13 36  1  0  0  0  0
 13 37  1  0  0  0  0
 14 15  2  0  0  0  0
 14 38  1  0  0  0  0
 15 18  1  0  0  0  0
 15 22  1  0  0  0  0
 16 39  1  0  0  0  0
 16 40  1  0  0  0  0
 16 41  1  0  0  0  0
 17 18  2  0  0  0  0
 17 42  1  0  0  0  0
 18 43  1  0  0  0  0
 19 23  1  0  0  0  0
 19 44  1  0  0  0  0
 20 24  2  0  0  0  0
 20 45  1  0  0  0  0
 21 46  1  0  0  0  0
 21 47  1  0  0  0  0
 22 26  2  0  0  0  0
 22 27  1  0  0  0  0
 23 25  2  0  0  0  0
 24 25  1  0  0  0  0
 24 48  1  0  0  0  0
 25 49  1  0  0  0  0
 26 28  1  0  0  0  0
 26 50  1  0  0  0  0
 27 29  2  0  0  0  0
 27 51  1  0  0  0  0
 28 54  1  0  0  0  0
 29 55  1  0  0  0  0
 30 56  1  0  0  0  0
 30 57  1  0  0  0  0
 30 58  1  0  0  0  0
M  END
> <PUBCHEM_COMPOUND_CID>
49830487

> <PUBCHEM_COMPOUND_CANONICALIZED>
1

> <PUBCHEM_CACTVS_COMPLEXITY>
511

> <PUBCHEM_CACTVS_HBOND_ACCEPTOR>
5

> <PUBCHEM_CACTVS_HBOND_DONOR>
3

> <PUBCHEM_CACTVS_ROTATABLE_BOND>
9

> <PUBCHEM_CACTVS_SUBSKEYS>
AAADceB7sAAAAAAAAAAAAAAAAAAAAAAAAAA8YIAAAAAAAAAB0AAAHgAQAAAADCzBmgY+xpLIFACoAjV3VACCiCA1IiAI2KE+bNgMJnrE9ZuEMahk1hHI6ce4yPCOwAABQAACAACAAAKAAAQAAAAAAAAAAA==

> <PUBCHEM_IUPAC_OPENEYE_NAME>
2-(3-aminopropylamino)-N-[1-(3-methoxyphenyl)ethyl]-4-(4-pyridyl)benzamide

> <PUBCHEM_IUPAC_CAS_NAME>
2-(3-aminopropylamino)-N-[1-(3-methoxyphenyl)ethyl]-4-pyridin-4-ylbenzamide

> <PUBCHEM_IUPAC_NAME_MARKUP>
2-(3-aminopropylamino)-<I>N</I>-[1-(3-methoxyphenyl)ethyl]-4-pyridin-4-ylbenzamide

> <PUBCHEM_IUPAC_NAME>
2-(3-aminopropylamino)-N-[1-(3-methoxyphenyl)ethyl]-4-pyridin-4-ylbenzamide

> <PUBCHEM_IUPAC_SYSTEMATIC_NAME>
2-(3-azanylpropylamino)-N-[1-(3-methoxyphenyl)ethyl]-4-pyridin-4-yl-benzamide

> <PUBCHEM_IUPAC_TRADITIONAL_NAME>
2-(3-aminopropylamino)-N-[1-(3-methoxyphenyl)ethyl]-4-(4-pyridyl)benzamide

> <PUBCHEM_IUPAC_INCHI>
InChI=1S/C24H28N4O2/c1-17(19-5-3-6-21(15-19)30-2)28-24(29)22-8-7-20(18-9-13-26-14-10-18)16-23(22)27-12-4-11-25/h3,5-10,13-17,27H,4,11-12,25H2,1-2H3,(H,28,29)

> <PUBCHEM_IUPAC_INCHIKEY>
ZRTWUBWXIGHVET-UHFFFAOYSA-N

> <PUBCHEM_XLOGP3_AA>
3.6

> <PUBCHEM_EXACT_MASS>
404.22122615

> <PUBCHEM_MOLECULAR_FORMULA>
C24H28N4O2

> <PUBCHEM_MOLECULAR_WEIGHT>
404.5

> <PUBCHEM_SMILES>
CC(C1=CC(=CC=C1)OC)NC(=O)C2=C(C=C(C=C2)C3=CC=NC=C3)NCCCN

> <PUBCHEM_OPENEYE_CAN_SMILES>
CC(C1=CC(=CC=C1)OC)NC(=O)C2=C(C=C(C=C2)C3=CC=NC=C3)NCCCN

> <PUBCHEM_OPENEYE_ISO_SMILES>
CC(C1=CC(=CC=C1)OC)NC(=O)C2=C(C=C(C=C2)C3=CC=NC=C3)NCCCN

> <PUBCHEM_CACTVS_TPSA>
89.3

> <PUBCHEM_MONOISOTOPIC_WEIGHT>
404.22122615

> <PUBCHEM_TOTAL_CHARGE>
0

> <PUBCHEM_HEAVY_ATOM_COUNT>
30

> <PUBCHEM_ATOM_DEF_STEREO_COUNT>
0

> <PUBCHEM_ATOM_UDEF_STEREO_COUNT>
1

> <PUBCHEM_BOND_DEF_STEREO_COUNT>
0

> <PUBCHEM_BOND_UDEF_STEREO_COUNT>
0

> <PUBCHEM_ISOTOPIC_ATOM_COUNT>
0

> <PUBCHEM_COMPONENT_COUNT>
1

> <PUBCHEM_CACTVS_TAUTO_COUNT>
-1

> <PUBCHEM_COORDINATE_TYPE>
1
5
255

> <PUBCHEM_BONDANNOTATIONS>
10  19  8
10  20  8
14  15  8
15  18  8
17  18  8
19  23  8
20  24  8
22  26  8
22  27  8
23  25  8
24  25  8
26  28  8
27  29  8
6  28  8
6  29  8
7  16  3
8  14  8
8  9  8
9  17  8

$$$$
