449054
  -OEChem-03202500352D

 35 38  0     0  0  0  0  0  0999 V2000
    2.6978   -1.5858    0.0000 N   0  0  0  0  0  0  0  0  0  0  0  0
    6.0125   -1.2494    0.0000 N   0  0  0  0  0  0  0  0  0  0  0  0
    3.1978   -2.4519    0.0000 N   0  0  0  0  0  0  0  0  0  0  0  0
    3.9021    0.8046    0.0000 N   0  0  0  0  0  0  0  0  0  0  0  0
    7.7724    0.7852    0.0000 N   0  0  0  0  0  0  0  0  0  0  0  0
    4.2804   -1.2494    0.0000 C   0  0  0  0  0  0  0  0  0  0  0  0
    3.3669   -0.8427    0.0000 C   0  0  0  0  0  0  0  0  0  0  0  0
    5.1464   -0.7494    0.0000 C   0  0  0  0  0  0  0  0  0  0  0  0
    3.1590    0.1355    0.0000 C   0  0  0  0  0  0  0  0  0  0  0  0
    4.1759   -2.2440    0.0000 C   0  0  0  0  0  0  0  0  0  0  0  0
    5.1464    0.2506    0.0000 C   0  0  0  0  0  0  0  0  0  0  0  0
    6.8785   -0.7494    0.0000 C   0  0  0  0  0  0  0  0  0  0  0  0
    6.8785    0.2506    0.0000 C   0  0  0  0  0  0  0  0  0  0  0  0
    6.0125    0.7506    0.0000 C   0  0  0  0  0  0  0  0  0  0  0  0
    2.2079    0.4445    0.0000 C   0  0  0  0  0  0  0  0  0  0  0  0
    3.6942    1.7827    0.0000 C   0  0  0  0  0  0  0  0  0  0  0  0
    7.7724   -1.2841    0.0000 C   0  0  0  0  0  0  0  0  0  0  0  0
    2.0000    1.4226    0.0000 C   0  0  0  0  0  0  0  0  0  0  0  0
    2.7431    2.0918    0.0000 C   0  0  0  0  0  0  0  0  0  0  0  0
    8.6785   -0.7702    0.0000 C   0  0  0  0  0  0  0  0  0  0  0  0
    4.4374    2.4519    0.0000 C   0  0  0  0  0  0  0  0  0  0  0  0
    8.6785    0.2714    0.0000 C   0  0  0  0  0  0  0  0  0  0  0  0
    4.6367   -2.6588    0.0000 H   0  0  0  0  0  0  0  0  0  0  0  0
    4.6095    0.5606    0.0000 H   0  0  0  0  0  0  0  0  0  0  0  0
    2.0812   -1.5210    0.0000 H   0  0  0  0  0  0  0  0  0  0  0  0
    6.0125    1.3706    0.0000 H   0  0  0  0  0  0  0  0  0  0  0  0
    1.7472    0.0296    0.0000 H   0  0  0  0  0  0  0  0  0  0  0  0
    7.7653   -1.9040    0.0000 H   0  0  0  0  0  0  0  0  0  0  0  0
    1.4103    1.6142    0.0000 H   0  0  0  0  0  0  0  0  0  0  0  0
    2.6142    2.6982    0.0000 H   0  0  0  0  0  0  0  0  0  0  0  0
    9.2142   -1.0823    0.0000 H   0  0  0  0  0  0  0  0  0  0  0  0
    4.8522    1.9911    0.0000 H   0  0  0  0  0  0  0  0  0  0  0  0
    4.8981    2.8667    0.0000 H   0  0  0  0  0  0  0  0  0  0  0  0
    4.0225    2.9126    0.0000 H   0  0  0  0  0  0  0  0  0  0  0  0
    9.2142    0.5835    0.0000 H   0  0  0  0  0  0  0  0  0  0  0  0
  1  3  1  0  0  0  0
  1  7  1  0  0  0  0
  1 25  1  0  0  0  0
  2  8  2  0  0  0  0
  2 12  1  0  0  0  0
  3 10  2  0  0  0  0
  4  9  1  0  0  0  0
  4 16  2  0  0  0  0
  5 13  1  0  0  0  0
  5 22  2  0  0  0  0
  6  7  2  0  0  0  0
  6  8  1  0  0  0  0
  6 10  1  0  0  0  0
  7  9  1  0  0  0  0
  8 11  1  0  0  0  0
  9 15  2  0  0  0  0
 10 23  1  0  0  0  0
 11 14  2  0  0  0  0
 11 24  1  0  0  0  0
 12 13  2  0  0  0  0
 12 17  1  0  0  0  0
 13 14  1  0  0  0  0
 14 26  1  0  0  0  0
 15 18  1  0  0  0  0
 15 27  1  0  0  0  0
 16 19  1  0  0  0  0
 16 21  1  0  0  0  0
 17 20  2  0  0  0  0
 17 28  1  0  0  0  0
 18 19  2  0  0  0  0
 18 29  1  0  0  0  0
 19 30  1  0  0  0  0
 20 22  1  0  0  0  0
 20 31  1  0  0  0  0
 21 32  1  0  0  0  0
 21 33  1  0  0  0  0
 21 34  1  0  0  0  0
 22 35  1  0  0  0  0
M  END
> <PUBCHEM_COMPOUND_CID>
449054

> <PUBCHEM_COMPOUND_CANONICALIZED>
1

> <PUBCHEM_CACTVS_COMPLEXITY>
376

> <PUBCHEM_CACTVS_HBOND_ACCEPTOR>
4

> <PUBCHEM_CACTVS_HBOND_DONOR>
1

> <PUBCHEM_CACTVS_ROTATABLE_BOND>
2

> <PUBCHEM_CACTVS_SUBSKEYS>
AAADccB7gAAAAAAAAAAAAAAAAAAAAWAAAAAsWLAAAAAAAACx/gAAHAAYAAAADAjBHgQ+wLJrEACiAzRnRACShCQxkiAY+SA4dJgIYOLA0dGUpAhgiADIyAcQgMAOAAAAAAAAAAAAAAAAAAAAAAAAAAAAAA==

> <PUBCHEM_IUPAC_OPENEYE_NAME>
2-[5-(6-methyl-2-pyridyl)-1H-pyrazol-4-yl]-1,5-naphthyridine

> <PUBCHEM_IUPAC_CAS_NAME>
2-[5-(6-methyl-2-pyridinyl)-1H-pyrazol-4-yl]-1,5-naphthyridine

> <PUBCHEM_IUPAC_NAME_MARKUP>
2-[5-(6-methylpyridin-2-yl)-1<I>H</I>-pyrazol-4-yl]-1,5-naphthyridine

> <PUBCHEM_IUPAC_NAME>
2-[5-(6-methylpyridin-2-yl)-1H-pyrazol-4-yl]-1,5-naphthyridine

> <PUBCHEM_IUPAC_SYSTEMATIC_NAME>
2-[5-(6-methylpyridin-2-yl)-1H-pyrazol-4-yl]-1,5-naphthyridine

> <PUBCHEM_IUPAC_TRADITIONAL_NAME>
2-[5-(6-methyl-2-pyridyl)-1H-pyrazol-4-yl]-1,5-naphthyridine

> <PUBCHEM_IUPAC_INCHI>
InChI=1S/C17H13N5/c1-11-4-2-5-16(20-11)17-12(10-19-22-17)13-7-8-14-15(21-13)6-3-9-18-14/h2-10H,1H3,(H,19,22)

> <PUBCHEM_IUPAC_INCHIKEY>
LBPKYPYHDKKRFS-UHFFFAOYSA-N

> <PUBCHEM_XLOGP3_AA>
2.2

> <PUBCHEM_EXACT_MASS>
287.11709544

> <PUBCHEM_MOLECULAR_FORMULA>
C17H13N5

> <PUBCHEM_MOLECULAR_WEIGHT>
287.32

> <PUBCHEM_SMILES>
CC1=NC(=CC=C1)C2=C(C=NN2)C3=NC4=C(C=C3)N=CC=C4

> <PUBCHEM_OPENEYE_CAN_SMILES>
CC1=NC(=CC=C1)C2=C(C=NN2)C3=NC4=C(C=C3)N=CC=C4

> <PUBCHEM_OPENEYE_ISO_SMILES>
CC1=NC(=CC=C1)C2=C(C=NN2)C3=NC4=C(C=C3)N=CC=C4

> <PUBCHEM_CACTVS_TPSA>
67.4

> <PUBCHEM_MONOISOTOPIC_WEIGHT>
287.11709544

> <PUBCHEM_TOTAL_CHARGE>
0

> <PUBCHEM_HEAVY_ATOM_COUNT>
22

> <PUBCHEM_ATOM_DEF_STEREO_COUNT>
0

> <PUBCHEM_ATOM_UDEF_STEREO_COUNT>
0

> <PUBCHEM_BOND_DEF_STEREO_COUNT>
0

> <PUBCHEM_BOND_UDEF_STEREO_COUNT>
0

> <PUBCHEM_ISOTOPIC_ATOM_COUNT>
0

> <PUBCHEM_COMPONENT_COUNT>
1

> <PUBCHEM_CACTVS_TAUTO_COUNT>
-1

> <PUBCHEM_COORDINATE_TYPE>
1
5
255

> <PUBCHEM_BONDANNOTATIONS>
1  3  8
1  7  8
11  14  8
12  13  8
12  17  8
13  14  8
15  18  8
16  19  8
17  20  8
18  19  8
2  12  8
2  8  8
20  22  8
3  10  8
4  16  8
4  9  8
5  13  8
5  22  8
6  10  8
6  7  8
8  11  8
9  15  8

$$$$
