44375703
  -OEChem-03202505432D

 54 58  0     0  0  0  0  0  0999 V2000
    6.8455    1.2147    0.0000 S   0  0  0  0  0  0  0  0  0  0  0  0
    6.7485    1.8834    0.0000 O   0  0  0  0  0  0  0  0  0  0  0  0
    4.6844    4.7349    0.0000 O   0  0  0  0  0  0  0  0  0  0  0  0
    4.6783   -0.3947    0.0000 N   0  0  0  0  0  0  0  0  0  0  0  0
    3.9639   -3.7844    0.0000 N   0  0  0  0  0  0  0  0  0  0  0  0
    5.9422    3.4726    0.0000 N   0  0  0  0  0  0  0  0  0  0  0  0
    5.2619    0.4100    0.0000 C   0  0  0  0  0  0  0  0  0  0  0  0
    4.9889   -1.3452    0.0000 C   0  0  0  0  0  0  0  0  0  0  0  0
    3.7320   -0.0900    0.0000 C   0  0  0  0  0  0  0  0  0  0  0  0
    4.6783    1.2147    0.0000 C   0  0  0  0  0  0  0  0  0  0  0  0
    3.7320    0.9100    0.0000 C   0  0  0  0  0  0  0  0  0  0  0  0
    4.3211   -2.0895    0.0000 C   0  0  0  0  0  0  0  0  0  0  0  0
    6.2619    0.4100    0.0000 C   0  0  0  0  0  0  0  0  0  0  0  0
    4.9889    2.1653    0.0000 C   0  0  0  0  0  0  0  0  0  0  0  0
    4.6318   -3.0401    0.0000 C   0  0  0  0  0  0  0  0  0  0  0  0
    2.8660   -0.5900    0.0000 C   0  0  0  0  0  0  0  0  0  0  0  0
    2.8660    1.4100    0.0000 C   0  0  0  0  0  0  0  0  0  0  0  0
    6.8455   -0.3947    0.0000 C   0  0  0  0  0  0  0  0  0  0  0  0
    2.0000   -0.0900    0.0000 C   0  0  0  0  0  0  0  0  0  0  0  0
    2.0000    0.9100    0.0000 C   0  0  0  0  0  0  0  0  0  0  0  0
    7.7917   -0.0900    0.0000 C   0  0  0  0  0  0  0  0  0  0  0  0
    5.9405    2.4726    0.0000 C   0  0  0  0  0  0  0  0  0  0  0  0
    4.4026    2.9753    0.0000 C   0  0  0  0  0  0  0  0  0  0  0  0
    7.7917    0.9100    0.0000 C   0  0  0  0  0  0  0  0  0  0  0  0
    4.9917    3.7833    0.0000 C   0  0  0  0  0  0  0  0  0  0  0  0
    4.2746   -4.7349    0.0000 C   0  0  0  0  0  0  0  0  0  0  0  0
    2.9854   -3.5782    0.0000 C   0  0  0  0  0  0  0  0  0  0  0  0
    8.6577   -0.5900    0.0000 C   0  0  0  0  0  0  0  0  0  0  0  0
    8.6577    1.4100    0.0000 C   0  0  0  0  0  0  0  0  0  0  0  0
    9.5238   -0.0900    0.0000 C   0  0  0  0  0  0  0  0  0  0  0  0
    9.5238    0.9100    0.0000 C   0  0  0  0  0  0  0  0  0  0  0  0
    5.3715   -1.8332    0.0000 H   0  0  0  0  0  0  0  0  0  0  0  0
    5.5359   -1.0532    0.0000 H   0  0  0  0  0  0  0  0  0  0  0  0
    3.9385   -1.6016    0.0000 H   0  0  0  0  0  0  0  0  0  0  0  0
    3.7742   -2.3816    0.0000 H   0  0  0  0  0  0  0  0  0  0  0  0
    5.0143   -3.5280    0.0000 H   0  0  0  0  0  0  0  0  0  0  0  0
    5.1787   -2.7480    0.0000 H   0  0  0  0  0  0  0  0  0  0  0  0
    2.8660   -1.2100    0.0000 H   0  0  0  0  0  0  0  0  0  0  0  0
    2.8660    2.0300    0.0000 H   0  0  0  0  0  0  0  0  0  0  0  0
    6.6529   -0.9840    0.0000 H   0  0  0  0  0  0  0  0  0  0  0  0
    1.4631   -0.4000    0.0000 H   0  0  0  0  0  0  0  0  0  0  0  0
    1.4631    1.2200    0.0000 H   0  0  0  0  0  0  0  0  0  0  0  0
    3.7826    2.9764    0.0000 H   0  0  0  0  0  0  0  0  0  0  0  0
    6.4445    3.8362    0.0000 H   0  0  0  0  0  0  0  0  0  0  0  0
    3.6852   -4.9275    0.0000 H   0  0  0  0  0  0  0  0  0  0  0  0
    4.4672   -5.3242    0.0000 H   0  0  0  0  0  0  0  0  0  0  0  0
    4.8639   -4.5423    0.0000 H   0  0  0  0  0  0  0  0  0  0  0  0
    3.1133   -2.9715    0.0000 H   0  0  0  0  0  0  0  0  0  0  0  0
    2.3787   -3.4503    0.0000 H   0  0  0  0  0  0  0  0  0  0  0  0
    2.8575   -4.1848    0.0000 H   0  0  0  0  0  0  0  0  0  0  0  0
    8.6577   -1.2100    0.0000 H   0  0  0  0  0  0  0  0  0  0  0  0
    8.6577    2.0300    0.0000 H   0  0  0  0  0  0  0  0  0  0  0  0
   10.0607   -0.4000    0.0000 H   0  0  0  0  0  0  0  0  0  0  0  0
   10.0607    1.2200    0.0000 H   0  0  0  0  0  0  0  0  0  0  0  0
  1 13  1  0  0  0  0
  1 24  1  0  0  0  0
  2 22  2  0  0  0  0
  3 25  2  0  0  0  0
  4  7  1  0  0  0  0
  4  8  1  0  0  0  0
  4  9  1  0  0  0  0
  5 15  1  0  0  0  0
  5 26  1  0  0  0  0
  5 27  1  0  0  0  0
  6 22  1  0  0  0  0
  6 25  1  0  0  0  0
  6 44  1  0  0  0  0
  7 10  2  0  0  0  0
  7 13  1  0  0  0  0
  8 12  1  0  0  0  0
  8 32  1  0  0  0  0
  8 33  1  0  0  0  0
  9 11  1  0  0  0  0
  9 16  2  0  0  0  0
 10 11  1  0  0  0  0
 10 14  1  0  0  0  0
 11 17  2  0  0  0  0
 12 15  1  0  0  0  0
 12 34  1  0  0  0  0
 12 35  1  0  0  0  0
 13 18  2  0  0  0  0
 14 22  1  0  0  0  0
 14 23  2  0  0  0  0
 15 36  1  0  0  0  0
 15 37  1  0  0  0  0
 16 19  1  0  0  0  0
 16 38  1  0  0  0  0
 17 20  1  0  0  0  0
 17 39  1  0  0  0  0
 18 21  1  0  0  0  0
 18 40  1  0  0  0  0
 19 20  2  0  0  0  0
 19 41  1  0  0  0  0
 20 42  1  0  0  0  0
 21 24  1  0  0  0  0
 21 28  2  0  0  0  0
 23 25  1  0  0  0  0
 23 43  1  0  0  0  0
 24 29  2  0  0  0  0
 26 45  1  0  0  0  0
 26 46  1  0  0  0  0
 26 47  1  0  0  0  0
 27 48  1  0  0  0  0
 27 49  1  0  0  0  0
 27 50  1  0  0  0  0
 28 30  1  0  0  0  0
 28 51  1  0  0  0  0
 29 31  1  0  0  0  0
 29 52  1  0  0  0  0
 30 31  2  0  0  0  0
 30 53  1  0  0  0  0
 31 54  1  0  0  0  0
M  END
> <PUBCHEM_COMPOUND_CID>
44375703

> <PUBCHEM_COMPOUND_CANONICALIZED>
1

> <PUBCHEM_CACTVS_COMPLEXITY>
738

> <PUBCHEM_CACTVS_HBOND_ACCEPTOR>
4

> <PUBCHEM_CACTVS_HBOND_DONOR>
1

> <PUBCHEM_CACTVS_ROTATABLE_BOND>
6

> <PUBCHEM_CACTVS_SUBSKEYS>
AAADceB7MABAAAAAAAAAAAAAAAAAAWJEAAAwYAAAAAAAAFgB/gAAHgQQAAAADAjB3gQywfPMEAisAyVyVACDgKAhCjBI2Dk4ZNgIIPLg1ZGEIAhglCDoyYccicCegAAAAAAGAAAAAAAAAAwAAAAAAAAAAA==

> <PUBCHEM_IUPAC_OPENEYE_NAME>
3-[2-(benzothiophen-2-yl)-1-[3-(dimethylamino)propyl]indol-3-yl]pyrrole-2,5-dione

> <PUBCHEM_IUPAC_CAS_NAME>
3-[2-(1-benzothiophen-2-yl)-1-[3-(dimethylamino)propyl]-3-indolyl]pyrrole-2,5-dione

> <PUBCHEM_IUPAC_NAME_MARKUP>
3-[2-(1-benzothiophen-2-yl)-1-[3-(dimethylamino)propyl]indol-3-yl]pyrrole-2,5-dione

> <PUBCHEM_IUPAC_NAME>
3-[2-(1-benzothiophen-2-yl)-1-[3-(dimethylamino)propyl]indol-3-yl]pyrrole-2,5-dione

> <PUBCHEM_IUPAC_SYSTEMATIC_NAME>
3-[2-(1-benzothiophen-2-yl)-1-[3-(dimethylamino)propyl]indol-3-yl]pyrrole-2,5-dione

> <PUBCHEM_IUPAC_TRADITIONAL_NAME>
3-[2-(benzothiophen-2-yl)-1-[3-(dimethylamino)propyl]indol-3-yl]-3-pyrroline-2,5-quinone

> <PUBCHEM_IUPAC_INCHI>
InChI=1S/C25H23N3O2S/c1-27(2)12-7-13-28-19-10-5-4-9-17(19)23(18-15-22(29)26-25(18)30)24(28)21-14-16-8-3-6-11-20(16)31-21/h3-6,8-11,14-15H,7,12-13H2,1-2H3,(H,26,29,30)

> <PUBCHEM_IUPAC_INCHIKEY>
PFAZIMNYEBJHOA-UHFFFAOYSA-N

> <PUBCHEM_XLOGP3_AA>
4.1

> <PUBCHEM_EXACT_MASS>
429.15109816

> <PUBCHEM_MOLECULAR_FORMULA>
C25H23N3O2S

> <PUBCHEM_MOLECULAR_WEIGHT>
429.5

> <PUBCHEM_SMILES>
CN(C)CCCN1C2=CC=CC=C2C(=C1C3=CC4=CC=CC=C4S3)C5=CC(=O)NC5=O

> <PUBCHEM_OPENEYE_CAN_SMILES>
CN(C)CCCN1C2=CC=CC=C2C(=C1C3=CC4=CC=CC=C4S3)C5=CC(=O)NC5=O

> <PUBCHEM_OPENEYE_ISO_SMILES>
CN(C)CCCN1C2=CC=CC=C2C(=C1C3=CC4=CC=CC=C4S3)C5=CC(=O)NC5=O

> <PUBCHEM_CACTVS_TPSA>
82.6

> <PUBCHEM_MONOISOTOPIC_WEIGHT>
429.15109816

> <PUBCHEM_TOTAL_CHARGE>
0

> <PUBCHEM_HEAVY_ATOM_COUNT>
31

> <PUBCHEM_ATOM_DEF_STEREO_COUNT>
0

> <PUBCHEM_ATOM_UDEF_STEREO_COUNT>
0

> <PUBCHEM_BOND_DEF_STEREO_COUNT>
0

> <PUBCHEM_BOND_UDEF_STEREO_COUNT>
0

> <PUBCHEM_ISOTOPIC_ATOM_COUNT>
0

> <PUBCHEM_COMPONENT_COUNT>
1

> <PUBCHEM_CACTVS_TAUTO_COUNT>
-1

> <PUBCHEM_COORDINATE_TYPE>
1
5
255

> <PUBCHEM_BONDANNOTATIONS>
1  13  8
1  24  8
10  11  8
11  17  8
13  18  8
16  19  8
17  20  8
18  21  8
19  20  8
21  24  8
21  28  8
24  29  8
28  30  8
29  31  8
30  31  8
4  7  8
4  9  8
7  10  8
9  11  8
9  16  8

$$$$
