25166868
  -OEChem-03202500472D

 40 43  0     0  0  0  0  0  0999 V2000
    4.0847   -1.3254    0.0000 F   0  0  0  0  0  0  0  0  0  0  0  0
    2.7644   -1.8322    0.0000 F   0  0  0  0  0  0  0  0  0  0  0  0
    2.2576   -0.5119    0.0000 F   0  0  0  0  0  0  0  0  0  0  0  0
    2.2212    3.3355    0.0000 F   0  0  0  0  0  0  0  0  0  0  0  0
    3.6180    3.1143    0.0000 F   0  0  0  0  0  0  0  0  0  0  0  0
    2.0000    1.9387    0.0000 F   0  0  0  0  0  0  0  0  0  0  0  0
    6.1547   -0.6050    0.0000 N   0  0  0  0  0  0  0  0  0  0  0  0
    6.6547    0.2610    0.0000 N   0  0  0  0  0  0  0  0  0  0  0  0
    7.6328    0.0531    0.0000 N   0  0  0  0  0  0  0  0  0  0  0  0
   11.2817   -2.7462    0.0000 N   0  0  0  0  0  0  0  0  0  0  0  0
   11.8653   -1.9414    0.0000 N   0  0  0  0  0  0  0  0  0  0  0  0
    4.5724    0.0994    0.0000 C   0  0  0  0  0  0  0  0  0  0  0  0
    5.1602   -0.7096    0.0000 C   0  0  0  0  0  0  0  0  0  0  0  0
    3.5778   -0.0051    0.0000 C   0  0  0  0  0  0  0  0  0  0  0  0
    4.9791    1.0130    0.0000 C   0  0  0  0  0  0  0  0  0  0  0  0
    7.7374   -0.9415    0.0000 C   0  0  0  0  0  0  0  0  0  0  0  0
    8.6034   -1.4414    0.0000 C   0  0  0  0  0  0  0  0  0  0  0  0
    2.9901    0.8039    0.0000 C   0  0  0  0  0  0  0  0  0  0  0  0
    3.3968    1.7175    0.0000 C   0  0  0  0  0  0  0  0  0  0  0  0
    6.8238   -1.3482    0.0000 C   0  0  0  0  0  0  0  0  0  0  0  0
    4.3913    1.8220    0.0000 C   0  0  0  0  0  0  0  0  0  0  0  0
   10.3354   -1.4414    0.0000 C   0  0  0  0  0  0  0  0  0  0  0  0
    3.1711   -0.9186    0.0000 C   0  0  0  0  0  0  0  0  0  0  0  0
    9.4694   -0.9415    0.0000 C   0  0  0  0  0  0  0  0  0  0  0  0
   10.3354   -2.4414    0.0000 C   0  0  0  0  0  0  0  0  0  0  0  0
    8.6034   -2.4414    0.0000 C   0  0  0  0  0  0  0  0  0  0  0  0
    9.4694   -2.9414    0.0000 C   0  0  0  0  0  0  0  0  0  0  0  0
    2.8090    2.5265    0.0000 C   0  0  0  0  0  0  0  0  0  0  0  0
   11.2817   -1.1367    0.0000 C   0  0  0  0  0  0  0  0  0  0  0  0
    4.6029   -0.9814    0.0000 H   0  0  0  0  0  0  0  0  0  0  0  0
    5.3310   -1.3056    0.0000 H   0  0  0  0  0  0  0  0  0  0  0  0
    5.5957    1.0778    0.0000 H   0  0  0  0  0  0  0  0  0  0  0  0
    2.3735    0.7391    0.0000 H   0  0  0  0  0  0  0  0  0  0  0  0
    6.6949   -1.9546    0.0000 H   0  0  0  0  0  0  0  0  0  0  0  0
    4.6435    2.3884    0.0000 H   0  0  0  0  0  0  0  0  0  0  0  0
    9.4694   -0.3215    0.0000 H   0  0  0  0  0  0  0  0  0  0  0  0
    8.0664   -2.7515    0.0000 H   0  0  0  0  0  0  0  0  0  0  0  0
    9.4694   -3.5614    0.0000 H   0  0  0  0  0  0  0  0  0  0  0  0
   11.4743   -0.5474    0.0000 H   0  0  0  0  0  0  0  0  0  0  0  0
   11.4743   -3.3355    0.0000 H   0  0  0  0  0  0  0  0  0  0  0  0
  1 23  1  0  0  0  0
  2 23  1  0  0  0  0
  3 23  1  0  0  0  0
  4 28  1  0  0  0  0
  5 28  1  0  0  0  0
  6 28  1  0  0  0  0
  7  8  1  0  0  0  0
  7 13  1  0  0  0  0
  7 20  1  0  0  0  0
  8  9  2  0  0  0  0
  9 16  1  0  0  0  0
 10 11  1  0  0  0  0
 10 25  1  0  0  0  0
 10 40  1  0  0  0  0
 11 29  2  0  0  0  0
 12 13  1  0  0  0  0
 12 14  2  0  0  0  0
 12 15  1  0  0  0  0
 13 30  1  0  0  0  0
 13 31  1  0  0  0  0
 14 18  1  0  0  0  0
 14 23  1  0  0  0  0
 15 21  2  0  0  0  0
 15 32  1  0  0  0  0
 16 17  1  0  0  0  0
 16 20  2  0  0  0  0
 17 24  2  0  0  0  0
 17 26  1  0  0  0  0
 18 19  2  0  0  0  0
 18 33  1  0  0  0  0
 19 21  1  0  0  0  0
 19 28  1  0  0  0  0
 20 34  1  0  0  0  0
 21 35  1  0  0  0  0
 22 24  1  0  0  0  0
 22 25  2  0  0  0  0
 22 29  1  0  0  0  0
 24 36  1  0  0  0  0
 25 27  1  0  0  0  0
 26 27  2  0  0  0  0
 26 37  1  0  0  0  0
 27 38  1  0  0  0  0
 29 39  1  0  0  0  0
M  END
> <PUBCHEM_COMPOUND_CID>
25166868

> <PUBCHEM_COMPOUND_CANONICALIZED>
1

> <PUBCHEM_CACTVS_COMPLEXITY>
570

> <PUBCHEM_CACTVS_HBOND_ACCEPTOR>
9

> <PUBCHEM_CACTVS_HBOND_DONOR>
1

> <PUBCHEM_CACTVS_ROTATABLE_BOND>
3

> <PUBCHEM_CACTVS_SUBSKEYS>
AAADccB7gcAAAAAAAAAAAAAAAAAAAWLAAAAwYAAAAAAAAFgB/AAAHQAYAAAADAjBHhQ8wPJrAACiAzRnRACSBAQxkgAY+SA4dJgIYKLA0dGUpAhgmADIyAcQgMAOyAACAAASAACQAAQAACQAAAAAAAAAAA==

> <PUBCHEM_IUPAC_OPENEYE_NAME>
5-[1-[[2,4-bis(trifluoromethyl)phenyl]methyl]triazol-4-yl]-1H-indazole

> <PUBCHEM_IUPAC_CAS_NAME>
5-[1-[[2,4-bis(trifluoromethyl)phenyl]methyl]-4-triazolyl]-1H-indazole

> <PUBCHEM_IUPAC_NAME_MARKUP>
5-[1-[[2,4-bis(trifluoromethyl)phenyl]methyl]triazol-4-yl]-1<I>H</I>-indazole

> <PUBCHEM_IUPAC_NAME>
5-[1-[[2,4-bis(trifluoromethyl)phenyl]methyl]triazol-4-yl]-1H-indazole

> <PUBCHEM_IUPAC_SYSTEMATIC_NAME>
5-[1-[[2,4-bis(trifluoromethyl)phenyl]methyl]-1,2,3-triazol-4-yl]-1H-indazole

> <PUBCHEM_IUPAC_TRADITIONAL_NAME>
5-[1-[2,4-bis(trifluoromethyl)benzyl]triazol-4-yl]-1H-indazole

> <PUBCHEM_IUPAC_INCHI>
InChI=1S/C18H11F6N5/c19-17(20,21)13-3-1-11(14(6-13)18(22,23)24)8-29-9-16(27-28-29)10-2-4-15-12(5-10)7-25-26-15/h1-7,9H,8H2,(H,25,26)

> <PUBCHEM_IUPAC_INCHIKEY>
IHGUHCPMDSTTIW-UHFFFAOYSA-N

> <PUBCHEM_XLOGP3_AA>
4.3

> <PUBCHEM_EXACT_MASS>
411.09186434

> <PUBCHEM_MOLECULAR_FORMULA>
C18H11F6N5

> <PUBCHEM_MOLECULAR_WEIGHT>
411.3

> <PUBCHEM_SMILES>
C1=CC2=C(C=C1C3=CN(N=N3)CC4=C(C=C(C=C4)C(F)(F)F)C(F)(F)F)C=NN2

> <PUBCHEM_OPENEYE_CAN_SMILES>
C1=CC2=C(C=C1C3=CN(N=N3)CC4=C(C=C(C=C4)C(F)(F)F)C(F)(F)F)C=NN2

> <PUBCHEM_OPENEYE_ISO_SMILES>
C1=CC2=C(C=C1C3=CN(N=N3)CC4=C(C=C(C=C4)C(F)(F)F)C(F)(F)F)C=NN2

> <PUBCHEM_CACTVS_TPSA>
59.4

> <PUBCHEM_MONOISOTOPIC_WEIGHT>
411.09186434

> <PUBCHEM_TOTAL_CHARGE>
0

> <PUBCHEM_HEAVY_ATOM_COUNT>
29

> <PUBCHEM_ATOM_DEF_STEREO_COUNT>
0

> <PUBCHEM_ATOM_UDEF_STEREO_COUNT>
0

> <PUBCHEM_BOND_DEF_STEREO_COUNT>
0

> <PUBCHEM_BOND_UDEF_STEREO_COUNT>
0

> <PUBCHEM_ISOTOPIC_ATOM_COUNT>
0

> <PUBCHEM_COMPONENT_COUNT>
1

> <PUBCHEM_CACTVS_TAUTO_COUNT>
-1

> <PUBCHEM_COORDINATE_TYPE>
1
5
255

> <PUBCHEM_BONDANNOTATIONS>
10  11  8
10  25  8
11  29  8
12  14  8
12  15  8
14  18  8
15  21  8
16  20  8
17  24  8
17  26  8
18  19  8
19  21  8
22  24  8
22  25  8
22  29  8
25  27  8
26  27  8
7  20  8
7  8  8
8  9  8
9  16  8

$$$$
