21362696
  -OEChem-03202507242D

 32 35  0     0  0  0  0  0  0999 V2000
    6.6498    1.7193    0.0000 Cl  0  0  0  0  0  0  0  0  0  0  0  0
    7.3991   -1.7403    0.0000 Cl  0  0  0  0  0  0  0  0  0  0  0  0
    8.0321    0.2078    0.0000 O   0  0  0  0  0  0  0  0  0  0  0  0
    4.5274    1.1203    0.0000 N   0  0  0  0  0  0  0  0  0  0  0  0
    2.0000   -0.0039    0.0000 N   0  0  0  0  0  0  0  0  0  0  0  0
    9.6814   -0.3211    0.0000 C   0  0  0  0  0  0  0  0  0  0  0  0
   10.4219    0.3509    0.0000 C   0  0  0  0  0  0  0  0  0  0  0  0
   10.6336   -0.6265    0.0000 C   0  0  0  0  0  0  0  0  0  0  0  0
    8.7040   -0.5328    0.0000 C   0  0  0  0  0  0  0  0  0  0  0  0
    7.0547   -0.0039    0.0000 C   0  0  0  0  0  0  0  0  0  0  0  0
    5.3364    0.5325    0.0000 C   0  0  0  0  0  0  0  0  0  0  0  0
    5.0274   -0.4185    0.0000 C   0  0  0  0  0  0  0  0  0  0  0  0
    6.3518    0.7648    0.0000 C   0  0  0  0  0  0  0  0  0  0  0  0
    4.0274   -0.4185    0.0000 C   0  0  0  0  0  0  0  0  0  0  0  0
    3.7183    0.5325    0.0000 C   0  0  0  0  0  0  0  0  0  0  0  0
    6.7328   -0.9946    0.0000 C   0  0  0  0  0  0  0  0  0  0  0  0
    5.7123   -1.2033    0.0000 C   0  0  0  0  0  0  0  0  0  0  0  0
    3.3424   -1.2033    0.0000 C   0  0  0  0  0  0  0  0  0  0  0  0
    2.7029    0.7648    0.0000 C   0  0  0  0  0  0  0  0  0  0  0  0
    2.3219   -0.9946    0.0000 C   0  0  0  0  0  0  0  0  0  0  0  0
    9.6513   -0.9404    0.0000 H   0  0  0  0  0  0  0  0  0  0  0  0
   10.9959    0.5853    0.0000 H   0  0  0  0  0  0  0  0  0  0  0  0
   10.0914    0.8754    0.0000 H   0  0  0  0  0  0  0  0  0  0  0  0
   10.5497   -1.2408    0.0000 H   0  0  0  0  0  0  0  0  0  0  0  0
   11.2532   -0.6024    0.0000 H   0  0  0  0  0  0  0  0  0  0  0  0
    8.1795   -0.8634    0.0000 H   0  0  0  0  0  0  0  0  0  0  0  0
    8.9385   -1.1068    0.0000 H   0  0  0  0  0  0  0  0  0  0  0  0
    4.5274    1.7403    0.0000 H   0  0  0  0  0  0  0  0  0  0  0  0
    5.5139   -1.7907    0.0000 H   0  0  0  0  0  0  0  0  0  0  0  0
    3.5408   -1.7907    0.0000 H   0  0  0  0  0  0  0  0  0  0  0  0
    2.5182    1.3566    0.0000 H   0  0  0  0  0  0  0  0  0  0  0  0
    1.9088   -1.4569    0.0000 H   0  0  0  0  0  0  0  0  0  0  0  0
  1 13  1  0  0  0  0
  2 16  1  0  0  0  0
  3  9  1  0  0  0  0
  3 10  1  0  0  0  0
  4 11  1  0  0  0  0
  4 15  1  0  0  0  0
  4 28  1  0  0  0  0
  5 19  2  0  0  0  0
  5 20  1  0  0  0  0
  6  7  1  0  0  0  0
  6  8  1  0  0  0  0
  6  9  1  0  0  0  0
  6 21  1  0  0  0  0
  7  8  1  0  0  0  0
  7 22  1  0  0  0  0
  7 23  1  0  0  0  0
  8 24  1  0  0  0  0
  8 25  1  0  0  0  0
  9 26  1  0  0  0  0
  9 27  1  0  0  0  0
 10 13  1  0  0  0  0
 10 16  2  0  0  0  0
 11 12  1  0  0  0  0
 11 13  2  0  0  0  0
 12 14  1  0  0  0  0
 12 17  2  0  0  0  0
 14 15  2  0  0  0  0
 14 18  1  0  0  0  0
 15 19  1  0  0  0  0
 16 17  1  0  0  0  0
 17 29  1  0  0  0  0
 18 20  2  0  0  0  0
 18 30  1  0  0  0  0
 19 31  1  0  0  0  0
 20 32  1  0  0  0  0
M  END
> <PUBCHEM_COMPOUND_CID>
21362696

> <PUBCHEM_COMPOUND_CANONICALIZED>
1

> <PUBCHEM_CACTVS_COMPLEXITY>
366

> <PUBCHEM_CACTVS_HBOND_ACCEPTOR>
2

> <PUBCHEM_CACTVS_HBOND_DONOR>
1

> <PUBCHEM_CACTVS_ROTATABLE_BOND>
3

> <PUBCHEM_CACTVS_SUBSKEYS>
AAADccBzIAAGAAAAAAAAAAAAGAAAAWAAAAA8QAAAAAAAAFgB/gAAHgIQAAAADQ7hniY8xvLJlACgAzRnRACCiCQxN2AI2SA8f5gMZuPFspvWOCjm0BnI6AeQ0PMOoABAIgCCCBBAAIBEAQQQIAAAAAAAAA==

> <PUBCHEM_IUPAC_OPENEYE_NAME>
6,8-dichloro-7-(cyclopropylmethoxy)-9H-pyrido[3,4-b]indole

> <PUBCHEM_IUPAC_CAS_NAME>
6,8-dichloro-7-(cyclopropylmethoxy)-9H-pyrido[3,4-b]indole

> <PUBCHEM_IUPAC_NAME_MARKUP>
6,8-dichloro-7-(cyclopropylmethoxy)-9<I>H</I>-pyrido[3,4-b]indole

> <PUBCHEM_IUPAC_NAME>
6,8-dichloro-7-(cyclopropylmethoxy)-9H-pyrido[3,4-b]indole

> <PUBCHEM_IUPAC_SYSTEMATIC_NAME>
6,8-bis(chloranyl)-7-(cyclopropylmethoxy)-9H-pyrido[3,4-b]indole

> <PUBCHEM_IUPAC_TRADITIONAL_NAME>
6,8-dichloro-7-(cyclopropylmethoxy)-9H-beta-carboline

> <PUBCHEM_IUPAC_INCHI>
InChI=1S/C15H12Cl2N2O/c16-11-5-10-9-3-4-18-6-12(9)19-14(10)13(17)15(11)20-7-8-1-2-8/h3-6,8,19H,1-2,7H2

> <PUBCHEM_IUPAC_INCHIKEY>
UHUORUOGWKYIIT-UHFFFAOYSA-N

> <PUBCHEM_XLOGP3_AA>
4.3

> <PUBCHEM_EXACT_MASS>
306.0326684

> <PUBCHEM_MOLECULAR_FORMULA>
C15H12Cl2N2O

> <PUBCHEM_MOLECULAR_WEIGHT>
307.2

> <PUBCHEM_SMILES>
C1CC1COC2=C(C=C3C4=C(C=NC=C4)NC3=C2Cl)Cl

> <PUBCHEM_OPENEYE_CAN_SMILES>
C1CC1COC2=C(C=C3C4=C(C=NC=C4)NC3=C2Cl)Cl

> <PUBCHEM_OPENEYE_ISO_SMILES>
C1CC1COC2=C(C=C3C4=C(C=NC=C4)NC3=C2Cl)Cl

> <PUBCHEM_CACTVS_TPSA>
37.9

> <PUBCHEM_MONOISOTOPIC_WEIGHT>
306.0326684

> <PUBCHEM_TOTAL_CHARGE>
0

> <PUBCHEM_HEAVY_ATOM_COUNT>
20

> <PUBCHEM_ATOM_DEF_STEREO_COUNT>
0

> <PUBCHEM_ATOM_UDEF_STEREO_COUNT>
0

> <PUBCHEM_BOND_DEF_STEREO_COUNT>
0

> <PUBCHEM_BOND_UDEF_STEREO_COUNT>
0

> <PUBCHEM_ISOTOPIC_ATOM_COUNT>
0

> <PUBCHEM_COMPONENT_COUNT>
1

> <PUBCHEM_CACTVS_TAUTO_COUNT>
-1

> <PUBCHEM_COORDINATE_TYPE>
1
5
255

> <PUBCHEM_BONDANNOTATIONS>
10  13  8
10  16  8
11  12  8
11  13  8
12  14  8
12  17  8
14  15  8
14  18  8
15  19  8
16  17  8
18  20  8
4  11  8
4  15  8
5  19  8
5  20  8

$$$$
