49830741
  -OEChem-03202500542D

 37 39  0     1  0  0  0  0  0999 V2000
    5.8320    0.3091    0.0000 O   0  0  0  0  0  0  0  0  0  0  0  0
    5.2071   -2.0229    0.0000 O   0  0  0  0  0  0  0  0  0  0  0  0
    3.5000    0.9339    0.0000 N   0  0  0  0  0  0  0  0  0  0  0  0
    2.8752   -1.3980    0.0000 N   0  0  0  0  0  0  0  0  0  0  0  0
    2.8752   -4.3980    0.0000 N   0  0  0  0  0  0  0  0  0  0  0  0
    4.0000    1.8000    0.0000 C   0  0  3  0  0  0  0  0  0  0  0  0
    4.0000    0.0679    0.0000 C   0  0  0  0  0  0  0  0  0  0  0  0
    3.7412   -0.8980    0.0000 C   0  0  0  0  0  0  0  0  0  0  0  0
    3.5000    2.6660    0.0000 C   0  0  0  0  0  0  0  0  0  0  0  0
    4.9659   -0.1909    0.0000 C   0  0  0  0  0  0  0  0  0  0  0  0
    5.0000    1.8000    0.0000 C   0  0  0  0  0  0  0  0  0  0  0  0
    4.7071   -1.1568    0.0000 C   0  0  0  0  0  0  0  0  0  0  0  0
    2.5000    2.6660    0.0000 C   0  0  0  0  0  0  0  0  0  0  0  0
    4.0000    3.5320    0.0000 C   0  0  0  0  0  0  0  0  0  0  0  0
    2.8752   -2.3980    0.0000 C   0  0  0  0  0  0  0  0  0  0  0  0
    2.0000    3.5320    0.0000 C   0  0  0  0  0  0  0  0  0  0  0  0
    3.5000    4.3980    0.0000 C   0  0  0  0  0  0  0  0  0  0  0  0
    2.5000    4.3980    0.0000 C   0  0  0  0  0  0  0  0  0  0  0  0
    2.0091   -2.8980    0.0000 C   0  0  0  0  0  0  0  0  0  0  0  0
    3.7412   -2.8980    0.0000 C   0  0  0  0  0  0  0  0  0  0  0  0
    2.0091   -3.8980    0.0000 C   0  0  0  0  0  0  0  0  0  0  0  0
    3.7412   -3.8980    0.0000 C   0  0  0  0  0  0  0  0  0  0  0  0
    3.3800    1.8000    0.0000 H   0  0  0  0  0  0  0  0  0  0  0  0
    2.8800    0.9339    0.0000 H   0  0  0  0  0  0  0  0  0  0  0  0
    5.0000    1.1800    0.0000 H   0  0  0  0  0  0  0  0  0  0  0  0
    5.6200    1.8000    0.0000 H   0  0  0  0  0  0  0  0  0  0  0  0
    5.0000    2.4200    0.0000 H   0  0  0  0  0  0  0  0  0  0  0  0
    2.3382   -1.0880    0.0000 H   0  0  0  0  0  0  0  0  0  0  0  0
    2.1900    2.1290    0.0000 H   0  0  0  0  0  0  0  0  0  0  0  0
    4.6200    3.5320    0.0000 H   0  0  0  0  0  0  0  0  0  0  0  0
    1.3800    3.5320    0.0000 H   0  0  0  0  0  0  0  0  0  0  0  0
    3.8100    4.9350    0.0000 H   0  0  0  0  0  0  0  0  0  0  0  0
    2.1900    4.9350    0.0000 H   0  0  0  0  0  0  0  0  0  0  0  0
    1.4722   -2.5880    0.0000 H   0  0  0  0  0  0  0  0  0  0  0  0
    4.2781   -2.5880    0.0000 H   0  0  0  0  0  0  0  0  0  0  0  0
    1.4722   -4.2080    0.0000 H   0  0  0  0  0  0  0  0  0  0  0  0
    4.2781   -4.2080    0.0000 H   0  0  0  0  0  0  0  0  0  0  0  0
  1 10  2  0  0  0  0
  2 12  2  0  0  0  0
  3  6  1  0  0  0  0
  3  7  1  0  0  0  0
  3 24  1  0  0  0  0
  4  8  1  0  0  0  0
  4 15  1  0  0  0  0
  4 28  1  0  0  0  0
  5 21  2  0  0  0  0
  5 22  1  0  0  0  0
  6  9  1  0  0  0  0
  6 11  1  0  0  0  0
  6 23  1  0  0  0  0
  7  8  2  0  0  0  0
  7 10  1  0  0  0  0
  8 12  1  0  0  0  0
  9 13  2  0  0  0  0
  9 14  1  0  0  0  0
 10 12  1  0  0  0  0
 11 25  1  0  0  0  0
 11 26  1  0  0  0  0
 11 27  1  0  0  0  0
 13 16  1  0  0  0  0
 13 29  1  0  0  0  0
 14 17  2  0  0  0  0
 14 30  1  0  0  0  0
 15 19  2  0  0  0  0
 15 20  1  0  0  0  0
 16 18  2  0  0  0  0
 16 31  1  0  0  0  0
 17 18  1  0  0  0  0
 17 32  1  0  0  0  0
 18 33  1  0  0  0  0
 19 21  1  0  0  0  0
 19 34  1  0  0  0  0
 20 22  2  0  0  0  0
 20 35  1  0  0  0  0
 21 36  1  0  0  0  0
 22 37  1  0  0  0  0
M  END
> <PUBCHEM_COMPOUND_CID>
49830741

> <PUBCHEM_COMPOUND_CANONICALIZED>
1

> <PUBCHEM_CACTVS_COMPLEXITY>
474

> <PUBCHEM_CACTVS_HBOND_ACCEPTOR>
5

> <PUBCHEM_CACTVS_HBOND_DONOR>
2

> <PUBCHEM_CACTVS_ROTATABLE_BOND>
5

> <PUBCHEM_CACTVS_SUBSKEYS>
AAADccB7MAAAAAAAAAAAAAAAAABAAAAAAAA8QAAAAAAAAAABwAAAHgAQAAAADCzBmgQ+wJLIEACoArR3RACCgCAxAiAI2KG4ZNgIIGrA0fGEJAhgkADIyUcQgIAOAAAAAAAAAAAAAAAAAAAAAAAAAAAAAA==

> <PUBCHEM_IUPAC_OPENEYE_NAME>
3-(1-phenylethylamino)-4-(4-pyridylamino)cyclobut-3-ene-1,2-dione

> <PUBCHEM_IUPAC_CAS_NAME>
3-(1-phenylethylamino)-4-(pyridin-4-ylamino)cyclobut-3-ene-1,2-dione

> <PUBCHEM_IUPAC_NAME_MARKUP>
3-(1-phenylethylamino)-4-(pyridin-4-ylamino)cyclobut-3-ene-1,2-dione

> <PUBCHEM_IUPAC_NAME>
3-(1-phenylethylamino)-4-(pyridin-4-ylamino)cyclobut-3-ene-1,2-dione

> <PUBCHEM_IUPAC_SYSTEMATIC_NAME>
3-(1-phenylethylamino)-4-(pyridin-4-ylamino)cyclobut-3-ene-1,2-dione

> <PUBCHEM_IUPAC_TRADITIONAL_NAME>
3-(1-phenylethylamino)-4-(4-pyridylamino)cyclobut-3-ene-1,2-quinone

> <PUBCHEM_IUPAC_INCHI>
InChI=1S/C17H15N3O2/c1-11(12-5-3-2-4-6-12)19-14-15(17(22)16(14)21)20-13-7-9-18-10-8-13/h2-11,19H,1H3,(H,18,20)

> <PUBCHEM_IUPAC_INCHIKEY>
MCBPNFWHHNJTGN-UHFFFAOYSA-N

> <PUBCHEM_XLOGP3_AA>
2.3

> <PUBCHEM_EXACT_MASS>
293.116426730

> <PUBCHEM_MOLECULAR_FORMULA>
C17H15N3O2

> <PUBCHEM_MOLECULAR_WEIGHT>
293.32

> <PUBCHEM_SMILES>
CC(C1=CC=CC=C1)NC2=C(C(=O)C2=O)NC3=CC=NC=C3

> <PUBCHEM_OPENEYE_CAN_SMILES>
CC(C1=CC=CC=C1)NC2=C(C(=O)C2=O)NC3=CC=NC=C3

> <PUBCHEM_OPENEYE_ISO_SMILES>
CC(C1=CC=CC=C1)NC2=C(C(=O)C2=O)NC3=CC=NC=C3

> <PUBCHEM_CACTVS_TPSA>
71.1

> <PUBCHEM_MONOISOTOPIC_WEIGHT>
293.116426730

> <PUBCHEM_TOTAL_CHARGE>
0

> <PUBCHEM_HEAVY_ATOM_COUNT>
22

> <PUBCHEM_ATOM_DEF_STEREO_COUNT>
0

> <PUBCHEM_ATOM_UDEF_STEREO_COUNT>
1

> <PUBCHEM_BOND_DEF_STEREO_COUNT>
0

> <PUBCHEM_BOND_UDEF_STEREO_COUNT>
0

> <PUBCHEM_ISOTOPIC_ATOM_COUNT>
0

> <PUBCHEM_COMPONENT_COUNT>
1

> <PUBCHEM_CACTVS_TAUTO_COUNT>
-1

> <PUBCHEM_COORDINATE_TYPE>
1
5
255

> <PUBCHEM_BONDANNOTATIONS>
10  12  8
13  16  8
14  17  8
15  19  8
15  20  8
16  18  8
17  18  8
19  21  8
20  22  8
5  21  8
5  22  8
6  11  3
7  10  8
7  8  8
8  12  8
9  13  8
9  14  8

$$$$
