18451176
  -OEChem-03202502062D

 58 61  0     0  0  0  0  0  0999 V2000
    5.5443   -1.6180    0.0000 S   0  0  0  0  0  0  0  0  0  0  0  0
    8.4333    3.2555    0.0000 O   0  0  0  0  0  0  0  0  0  0  0  0
    2.8660   -0.3133    0.0000 N   0  0  0  0  0  0  0  0  0  0  0  0
    6.7870    3.7936    0.0000 N   0  0  0  0  0  0  0  0  0  0  0  0
    3.7320    1.1867    0.0000 N   0  0  0  0  0  0  0  0  0  0  0  0
    8.0761    4.9503    0.0000 N   0  0  0  0  0  0  0  0  0  0  0  0
    2.8660   -5.3133    0.0000 N   0  0  0  0  0  0  0  0  0  0  0  0
    5.5443   -0.0085    0.0000 C   0  0  0  0  0  0  0  0  0  0  0  0
    4.5981   -0.3133    0.0000 C   0  0  0  0  0  0  0  0  0  0  0  0
    5.8550    0.9420    0.0000 C   0  0  0  0  0  0  0  0  0  0  0  0
    4.5981   -1.3133    0.0000 C   0  0  0  0  0  0  0  0  0  0  0  0
    6.1279   -0.8133    0.0000 C   0  0  0  0  0  0  0  0  0  0  0  0
    3.7320    0.1867    0.0000 C   0  0  0  0  0  0  0  0  0  0  0  0
    3.7320   -1.8133    0.0000 C   0  0  0  0  0  0  0  0  0  0  0  0
    5.1871    1.6863    0.0000 C   0  0  0  0  0  0  0  0  0  0  0  0
    6.8335    1.1482    0.0000 C   0  0  0  0  0  0  0  0  0  0  0  0
    6.4763    2.8430    0.0000 C   0  0  0  0  0  0  0  0  0  0  0  0
    5.4978    2.6368    0.0000 C   0  0  0  0  0  0  0  0  0  0  0  0
    7.1441    2.0987    0.0000 C   0  0  0  0  0  0  0  0  0  0  0  0
    2.8660   -1.3133    0.0000 C   0  0  0  0  0  0  0  0  0  0  0  0
    3.7320   -2.8133    0.0000 C   0  0  0  0  0  0  0  0  0  0  0  0
    7.7654    3.9998    0.0000 C   0  0  0  0  0  0  0  0  0  0  0  0
    9.0546    5.1565    0.0000 C   0  0  0  0  0  0  0  0  0  0  0  0
   10.7010    4.6184    0.0000 C   0  0  0  0  0  0  0  0  0  0  0  0
    9.7225    4.4122    0.0000 C   0  0  0  0  0  0  0  0  0  0  0  0
    3.7320   -4.8133    0.0000 C   0  0  0  0  0  0  0  0  0  0  0  0
    9.3653    6.1070    0.0000 C   0  0  0  0  0  0  0  0  0  0  0  0
    3.7320   -3.8133    0.0000 C   0  0  0  0  0  0  0  0  0  0  0  0
   11.0116    5.5690    0.0000 C   0  0  0  0  0  0  0  0  0  0  0  0
   10.3438    6.3133    0.0000 C   0  0  0  0  0  0  0  0  0  0  0  0
   11.3688    3.8741    0.0000 C   0  0  0  0  0  0  0  0  0  0  0  0
    2.8660   -6.3133    0.0000 C   0  0  0  0  0  0  0  0  0  0  0  0
    2.0000   -4.8133    0.0000 C   0  0  0  0  0  0  0  0  0  0  0  0
    6.7479   -0.8133    0.0000 H   0  0  0  0  0  0  0  0  0  0  0  0
    4.5804    1.5584    0.0000 H   0  0  0  0  0  0  0  0  0  0  0  0
    7.2475    0.6867    0.0000 H   0  0  0  0  0  0  0  0  0  0  0  0
    5.0837    3.0983    0.0000 H   0  0  0  0  0  0  0  0  0  0  0  0
    7.7508    2.2266    0.0000 H   0  0  0  0  0  0  0  0  0  0  0  0
    2.3291   -1.6233    0.0000 H   0  0  0  0  0  0  0  0  0  0  0  0
    6.3729    4.2550    0.0000 H   0  0  0  0  0  0  0  0  0  0  0  0
    3.1951    1.4967    0.0000 H   0  0  0  0  0  0  0  0  0  0  0  0
    4.2690    1.4967    0.0000 H   0  0  0  0  0  0  0  0  0  0  0  0
    7.6620    5.4118    0.0000 H   0  0  0  0  0  0  0  0  0  0  0  0
    9.5298    3.8229    0.0000 H   0  0  0  0  0  0  0  0  0  0  0  0
    3.9441   -5.3959    0.0000 H   0  0  0  0  0  0  0  0  0  0  0  0
    4.3426   -4.7056    0.0000 H   0  0  0  0  0  0  0  0  0  0  0  0
    8.9512    6.5685    0.0000 H   0  0  0  0  0  0  0  0  0  0  0  0
   11.6183    5.6968    0.0000 H   0  0  0  0  0  0  0  0  0  0  0  0
   10.5364    6.9026    0.0000 H   0  0  0  0  0  0  0  0  0  0  0  0
   10.9073    3.4601    0.0000 H   0  0  0  0  0  0  0  0  0  0  0  0
   11.7829    3.4127    0.0000 H   0  0  0  0  0  0  0  0  0  0  0  0
   11.8303    4.2882    0.0000 H   0  0  0  0  0  0  0  0  0  0  0  0
    2.2460   -6.3133    0.0000 H   0  0  0  0  0  0  0  0  0  0  0  0
    2.8660   -6.9333    0.0000 H   0  0  0  0  0  0  0  0  0  0  0  0
    3.4860   -6.3133    0.0000 H   0  0  0  0  0  0  0  0  0  0  0  0
    2.3100   -4.2763    0.0000 H   0  0  0  0  0  0  0  0  0  0  0  0
    1.4631   -4.5033    0.0000 H   0  0  0  0  0  0  0  0  0  0  0  0
    1.6900   -5.3502    0.0000 H   0  0  0  0  0  0  0  0  0  0  0  0
  1 11  1  0  0  0  0
  1 12  1  0  0  0  0
  2 22  2  0  0  0  0
  3 13  2  0  0  0  0
  3 20  1  0  0  0  0
  4 17  1  0  0  0  0
  4 22  1  0  0  0  0
  4 40  1  0  0  0  0
  5 13  1  0  0  0  0
  5 41  1  0  0  0  0
  5 42  1  0  0  0  0
  6 22  1  0  0  0  0
  6 23  1  0  0  0  0
  6 43  1  0  0  0  0
  7 26  1  0  0  0  0
  7 32  1  0  0  0  0
  7 33  1  0  0  0  0
  8  9  1  0  0  0  0
  8 10  1  0  0  0  0
  8 12  2  0  0  0  0
  9 11  2  0  0  0  0
  9 13  1  0  0  0  0
 10 15  2  0  0  0  0
 10 16  1  0  0  0  0
 11 14  1  0  0  0  0
 12 34  1  0  0  0  0
 14 20  2  0  0  0  0
 14 21  1  0  0  0  0
 15 18  1  0  0  0  0
 15 35  1  0  0  0  0
 16 19  2  0  0  0  0
 16 36  1  0  0  0  0
 17 18  2  0  0  0  0
 17 19  1  0  0  0  0
 18 37  1  0  0  0  0
 19 38  1  0  0  0  0
 20 39  1  0  0  0  0
 21 28  3  0  0  0  0
 23 25  1  0  0  0  0
 23 27  2  0  0  0  0
 24 25  2  0  0  0  0
 24 29  1  0  0  0  0
 24 31  1  0  0  0  0
 25 44  1  0  0  0  0
 26 28  1  0  0  0  0
 26 45  1  0  0  0  0
 26 46  1  0  0  0  0
 27 30  1  0  0  0  0
 27 47  1  0  0  0  0
 29 30  2  0  0  0  0
 29 48  1  0  0  0  0
 30 49  1  0  0  0  0
 31 50  1  0  0  0  0
 31 51  1  0  0  0  0
 31 52  1  0  0  0  0
 32 53  1  0  0  0  0
 32 54  1  0  0  0  0
 32 55  1  0  0  0  0
 33 56  1  0  0  0  0
 33 57  1  0  0  0  0
 33 58  1  0  0  0  0
M  END
> <PUBCHEM_COMPOUND_CID>
18451176

> <PUBCHEM_COMPOUND_CANONICALIZED>
1

> <PUBCHEM_CACTVS_COMPLEXITY>
725

> <PUBCHEM_CACTVS_HBOND_ACCEPTOR>
5

> <PUBCHEM_CACTVS_HBOND_DONOR>
3

> <PUBCHEM_CACTVS_ROTATABLE_BOND>
5

> <PUBCHEM_CACTVS_SUBSKEYS>
AAADceB7oABAAAAAAAAAAAAAAAAAASAAAAA8YIAAAAAAAFgB/AAAHgQQAAAADAjFWgS/8dPIEAjsEjZndAiDgKkxCjAI2DAoZJiIIGLgkZGEIAxolALoyCcQgMAOiAAAQAAAAAAQAACAAAAAAAAAAAAAAA==

> <PUBCHEM_IUPAC_OPENEYE_NAME>
1-[4-[4-amino-7-[3-(dimethylamino)prop-1-ynyl]thieno[3,2-c]pyridin-3-yl]phenyl]-3-(m-tolyl)urea

> <PUBCHEM_IUPAC_CAS_NAME>
1-[4-[4-amino-7-[3-(dimethylamino)prop-1-ynyl]-3-thieno[3,2-c]pyridinyl]phenyl]-3-(3-methylphenyl)urea

> <PUBCHEM_IUPAC_NAME_MARKUP>
1-[4-[4-amino-7-[3-(dimethylamino)prop-1-ynyl]thieno[3,2-c]pyridin-3-yl]phenyl]-3-(3-methylphenyl)urea

> <PUBCHEM_IUPAC_NAME>
1-[4-[4-amino-7-[3-(dimethylamino)prop-1-ynyl]thieno[3,2-c]pyridin-3-yl]phenyl]-3-(3-methylphenyl)urea

> <PUBCHEM_IUPAC_SYSTEMATIC_NAME>
1-[4-[4-azanyl-7-[3-(dimethylamino)prop-1-ynyl]thieno[3,2-c]pyridin-3-yl]phenyl]-3-(3-methylphenyl)urea

> <PUBCHEM_IUPAC_TRADITIONAL_NAME>
1-[4-[4-amino-7-[3-(dimethylamino)prop-1-ynyl]thieno[3,2-c]pyridin-3-yl]phenyl]-3-(m-tolyl)urea

> <PUBCHEM_IUPAC_INCHI>
InChI=1S/C26H25N5OS/c1-17-6-4-8-21(14-17)30-26(32)29-20-11-9-18(10-12-20)22-16-33-24-19(7-5-13-31(2)3)15-28-25(27)23(22)24/h4,6,8-12,14-16H,13H2,1-3H3,(H2,27,28)(H2,29,30,32)

> <PUBCHEM_IUPAC_INCHIKEY>
NRGYZNJPCGRCLV-UHFFFAOYSA-N

> <PUBCHEM_XLOGP3_AA>
4.3

> <PUBCHEM_EXACT_MASS>
455.17798161

> <PUBCHEM_MOLECULAR_FORMULA>
C26H25N5OS

> <PUBCHEM_MOLECULAR_WEIGHT>
455.6

> <PUBCHEM_SMILES>
CC1=CC(=CC=C1)NC(=O)NC2=CC=C(C=C2)C3=CSC4=C3C(=NC=C4C#CCN(C)C)N

> <PUBCHEM_OPENEYE_CAN_SMILES>
CC1=CC(=CC=C1)NC(=O)NC2=CC=C(C=C2)C3=CSC4=C3C(=NC=C4C#CCN(C)C)N

> <PUBCHEM_OPENEYE_ISO_SMILES>
CC1=CC(=CC=C1)NC(=O)NC2=CC=C(C=C2)C3=CSC4=C3C(=NC=C4C#CCN(C)C)N

> <PUBCHEM_CACTVS_TPSA>
112

> <PUBCHEM_MONOISOTOPIC_WEIGHT>
455.17798161

> <PUBCHEM_TOTAL_CHARGE>
0

> <PUBCHEM_HEAVY_ATOM_COUNT>
33

> <PUBCHEM_ATOM_DEF_STEREO_COUNT>
0

> <PUBCHEM_ATOM_UDEF_STEREO_COUNT>
0

> <PUBCHEM_BOND_DEF_STEREO_COUNT>
0

> <PUBCHEM_BOND_UDEF_STEREO_COUNT>
0

> <PUBCHEM_ISOTOPIC_ATOM_COUNT>
0

> <PUBCHEM_COMPONENT_COUNT>
1

> <PUBCHEM_CACTVS_TAUTO_COUNT>
-1

> <PUBCHEM_COORDINATE_TYPE>
1
5
255

> <PUBCHEM_BONDANNOTATIONS>
1  11  8
1  12  8
10  15  8
10  16  8
11  14  8
14  20  8
15  18  8
16  19  8
17  18  8
17  19  8
23  25  8
23  27  8
24  25  8
24  29  8
27  30  8
29  30  8
3  13  8
3  20  8
8  12  8
8  9  8
9  11  8
9  13  8

$$$$
