49830513
  -OEChem-03202503202D

 38 40  0     0  0  0  0  0  0999 V2000
    5.1350    2.1920    0.0000 Br  0  0  0  0  0  0  0  0  0  0  0  0
    3.4030    0.1920    0.0000 O   0  0  0  0  0  0  0  0  0  0  0  0
    5.1350    0.1920    0.0000 N   0  0  0  0  0  0  0  0  0  0  0  0
    8.5991    0.1920    0.0000 N   0  0  0  0  0  0  0  0  0  0  0  0
   10.5478    1.8944    0.0000 N   0  0  0  0  0  0  0  0  0  0  0  0
    6.8671    0.1920    0.0000 N   0  0  0  0  0  0  0  0  0  0  0  0
   11.0478    1.0284    0.0000 N   0  0  0  0  0  0  0  0  0  0  0  0
    7.7331    1.6920    0.0000 N   0  0  0  0  0  0  0  0  0  0  0  0
    2.5369   -1.3080    0.0000 N   0  0  0  0  0  0  0  0  0  0  0  0
    5.1350   -0.8080    0.0000 C   0  0  0  0  0  0  0  0  0  0  0  0
    4.2690   -1.3080    0.0000 C   0  0  0  0  0  0  0  0  0  0  0  0
    9.4651    0.6920    0.0000 C   0  0  0  0  0  0  0  0  0  0  0  0
    6.0010    0.6920    0.0000 C   0  0  0  0  0  0  0  0  0  0  0  0
    6.0010   -1.3080    0.0000 C   0  0  0  0  0  0  0  0  0  0  0  0
    9.5697    1.6865    0.0000 C   0  0  0  0  0  0  0  0  0  0  0  0
    7.7331    0.6920    0.0000 C   0  0  0  0  0  0  0  0  0  0  0  0
    4.2690   -2.3080    0.0000 C   0  0  0  0  0  0  0  0  0  0  0  0
   10.3787    0.2853    0.0000 C   0  0  0  0  0  0  0  0  0  0  0  0
    6.0010    1.6920    0.0000 C   0  0  0  0  0  0  0  0  0  0  0  0
    6.0010   -2.3080    0.0000 C   0  0  0  0  0  0  0  0  0  0  0  0
    5.1350   -2.8080    0.0000 C   0  0  0  0  0  0  0  0  0  0  0  0
    3.4030   -0.8080    0.0000 C   0  0  0  0  0  0  0  0  0  0  0  0
   10.9546    2.8080    0.0000 C   0  0  0  0  0  0  0  0  0  0  0  0
    6.8671    2.1920    0.0000 C   0  0  0  0  0  0  0  0  0  0  0  0
    4.5981    0.5020    0.0000 H   0  0  0  0  0  0  0  0  0  0  0  0
    8.5991   -0.4280    0.0000 H   0  0  0  0  0  0  0  0  0  0  0  0
    9.1089    2.1014    0.0000 H   0  0  0  0  0  0  0  0  0  0  0  0
    6.5380   -0.9980    0.0000 H   0  0  0  0  0  0  0  0  0  0  0  0
    3.7320   -2.6180    0.0000 H   0  0  0  0  0  0  0  0  0  0  0  0
   10.5076   -0.3212    0.0000 H   0  0  0  0  0  0  0  0  0  0  0  0
    6.5380   -2.6180    0.0000 H   0  0  0  0  0  0  0  0  0  0  0  0
    5.1350   -3.4280    0.0000 H   0  0  0  0  0  0  0  0  0  0  0  0
   11.5210    2.5558    0.0000 H   0  0  0  0  0  0  0  0  0  0  0  0
   11.2067    3.3744    0.0000 H   0  0  0  0  0  0  0  0  0  0  0  0
   10.3882    3.0602    0.0000 H   0  0  0  0  0  0  0  0  0  0  0  0
    6.8671    2.8120    0.0000 H   0  0  0  0  0  0  0  0  0  0  0  0
    2.0000   -0.9980    0.0000 H   0  0  0  0  0  0  0  0  0  0  0  0
    2.5369   -1.9280    0.0000 H   0  0  0  0  0  0  0  0  0  0  0  0
  1 19  1  0  0  0  0
  2 22  2  0  0  0  0
  3 10  1  0  0  0  0
  3 13  1  0  0  0  0
  3 25  1  0  0  0  0
  4 12  1  0  0  0  0
  4 16  1  0  0  0  0
  4 26  1  0  0  0  0
  5  7  1  0  0  0  0
  5 15  1  0  0  0  0
  5 23  1  0  0  0  0
  6 13  2  0  0  0  0
  6 16  1  0  0  0  0
  7 18  2  0  0  0  0
  8 16  2  0  0  0  0
  8 24  1  0  0  0  0
  9 22  1  0  0  0  0
  9 37  1  0  0  0  0
  9 38  1  0  0  0  0
 10 11  1  0  0  0  0
 10 14  2  0  0  0  0
 11 17  2  0  0  0  0
 11 22  1  0  0  0  0
 12 15  2  0  0  0  0
 12 18  1  0  0  0  0
 13 19  1  0  0  0  0
 14 20  1  0  0  0  0
 14 28  1  0  0  0  0
 15 27  1  0  0  0  0
 17 21  1  0  0  0  0
 17 29  1  0  0  0  0
 18 30  1  0  0  0  0
 19 24  2  0  0  0  0
 20 21  2  0  0  0  0
 20 31  1  0  0  0  0
 21 32  1  0  0  0  0
 23 33  1  0  0  0  0
 23 34  1  0  0  0  0
 23 35  1  0  0  0  0
 24 36  1  0  0  0  0
M  END
> <PUBCHEM_COMPOUND_CID>
49830513

> <PUBCHEM_COMPOUND_CANONICALIZED>
1

> <PUBCHEM_CACTVS_COMPLEXITY>
440

> <PUBCHEM_CACTVS_HBOND_ACCEPTOR>
6

> <PUBCHEM_CACTVS_HBOND_DONOR>
3

> <PUBCHEM_CACTVS_ROTATABLE_BOND>
5

> <PUBCHEM_CACTVS_SUBSKEYS>
AAADccBzoAAAEAAAAAAAAAAAAAAAAWAAAAA8QAAAAAAAAAAB8AAAHgBYAAABrAjBmgQ/8JbIEACqAjd3dACShCk1kqAZ2CEodNiIaPrA3dGUpYhomALIyecYiACOAAAAAAACAAAAAAAAAAQAAAAAAAAAAA==

> <PUBCHEM_IUPAC_OPENEYE_NAME>
2-[[5-bromo-2-[(1-methylpyrazol-4-yl)amino]pyrimidin-4-yl]amino]benzamide

> <PUBCHEM_IUPAC_CAS_NAME>
2-[[5-bromo-2-[(1-methyl-4-pyrazolyl)amino]-4-pyrimidinyl]amino]benzamide

> <PUBCHEM_IUPAC_NAME_MARKUP>
2-[[5-bromo-2-[(1-methylpyrazol-4-yl)amino]pyrimidin-4-yl]amino]benzamide

> <PUBCHEM_IUPAC_NAME>
2-[[5-bromo-2-[(1-methylpyrazol-4-yl)amino]pyrimidin-4-yl]amino]benzamide

> <PUBCHEM_IUPAC_SYSTEMATIC_NAME>
2-[[5-bromanyl-2-[(1-methylpyrazol-4-yl)amino]pyrimidin-4-yl]amino]benzamide

> <PUBCHEM_IUPAC_TRADITIONAL_NAME>
2-[[5-bromo-2-[(1-methylpyrazol-4-yl)amino]pyrimidin-4-yl]amino]benzamide

> <PUBCHEM_IUPAC_INCHI>
InChI=1S/C15H14BrN7O/c1-23-8-9(6-19-23)20-15-18-7-11(16)14(22-15)21-12-5-3-2-4-10(12)13(17)24/h2-8H,1H3,(H2,17,24)(H2,18,20,21,22)

> <PUBCHEM_IUPAC_INCHIKEY>
KHGPYYFCIAISBU-UHFFFAOYSA-N

> <PUBCHEM_XLOGP3_AA>
2.4

> <PUBCHEM_EXACT_MASS>
387.04432

> <PUBCHEM_MOLECULAR_FORMULA>
C15H14BrN7O

> <PUBCHEM_MOLECULAR_WEIGHT>
388.22

> <PUBCHEM_SMILES>
CN1C=C(C=N1)NC2=NC=C(C(=N2)NC3=CC=CC=C3C(=O)N)Br

> <PUBCHEM_OPENEYE_CAN_SMILES>
CN1C=C(C=N1)NC2=NC=C(C(=N2)NC3=CC=CC=C3C(=O)N)Br

> <PUBCHEM_OPENEYE_ISO_SMILES>
CN1C=C(C=N1)NC2=NC=C(C(=N2)NC3=CC=CC=C3C(=O)N)Br

> <PUBCHEM_CACTVS_TPSA>
111

> <PUBCHEM_MONOISOTOPIC_WEIGHT>
387.04432

> <PUBCHEM_TOTAL_CHARGE>
0

> <PUBCHEM_HEAVY_ATOM_COUNT>
24

> <PUBCHEM_ATOM_DEF_STEREO_COUNT>
0

> <PUBCHEM_ATOM_UDEF_STEREO_COUNT>
0

> <PUBCHEM_BOND_DEF_STEREO_COUNT>
0

> <PUBCHEM_BOND_UDEF_STEREO_COUNT>
0

> <PUBCHEM_ISOTOPIC_ATOM_COUNT>
0

> <PUBCHEM_COMPONENT_COUNT>
1

> <PUBCHEM_CACTVS_TAUTO_COUNT>
-1

> <PUBCHEM_COORDINATE_TYPE>
1
5
255

> <PUBCHEM_BONDANNOTATIONS>
10  11  8
10  14  8
11  17  8
12  15  8
12  18  8
13  19  8
14  20  8
17  21  8
19  24  8
20  21  8
5  15  8
5  7  8
6  13  8
6  16  8
7  18  8
8  16  8
8  24  8

$$$$
