9850467
  -OEChem-03202505132D

 76 80  0     1  0  0  0  0  0999 V2000
    9.9837   -2.2602    0.0000 S   0  0  0  0  0  0  0  0  0  0  0  0
    7.3211    0.1137    0.0000 O   0  0  0  0  0  0  0  0  0  0  0  0
   10.9245    0.2393    0.0000 O   0  0  0  0  0  0  0  0  0  0  0  0
    6.7320    2.1132    0.0000 N   0  0  3  0  0  0  0  0  0  0  0  0
    4.5000    1.2472    0.0000 N   0  0  0  0  0  0  0  0  0  0  0  0
    8.9674    0.6518    0.0000 N   0  0  0  0  0  0  0  0  0  0  0  0
   11.5135   -1.7602    0.0000 N   0  0  0  0  0  0  0  0  0  0  0  0
    7.2746   -2.5317    0.0000 N   0  0  0  0  0  0  0  0  0  0  0  0
    5.6282   -3.0698    0.0000 N   0  0  0  0  0  0  0  0  0  0  0  0
    6.9174   -4.2265    0.0000 N   0  0  0  0  0  0  0  0  0  0  0  0
    6.7320    3.1132    0.0000 C   0  0  3  0  0  0  0  0  0  0  0  0
    5.0000    2.1132    0.0000 C   0  0  2  0  0  0  0  0  0  0  0  0
    5.8660    1.6132    0.0000 C   0  0  0  0  0  0  0  0  0  0  0  0
    7.6783    1.8085    0.0000 C   0  0  1  0  0  0  0  0  0  0  0  0
    5.8660    3.6132    0.0000 C   0  0  0  0  0  0  0  0  0  0  0  0
    7.6783    3.4180    0.0000 C   0  0  0  0  0  0  0  0  0  0  0  0
    5.0000    3.1132    0.0000 C   0  0  0  0  0  0  0  0  0  0  0  0
    8.2619    2.6132    0.0000 C   0  0  0  0  0  0  0  0  0  0  0  0
    4.0000    2.1132    0.0000 C   0  0  0  0  0  0  0  0  0  0  0  0
    7.9889    0.8580    0.0000 C   0  0  0  0  0  0  0  0  0  0  0  0
    3.5000    2.9793    0.0000 C   0  0  0  0  0  0  0  0  0  0  0  0
    9.2781   -0.2988    0.0000 C   0  0  1  0  0  0  0  0  0  0  0  0
    2.5000    2.9793    0.0000 C   0  0  0  0  0  0  0  0  0  0  0  0
    4.0000    3.8453    0.0000 C   0  0  0  0  0  0  0  0  0  0  0  0
    8.6103   -1.0431    0.0000 C   0  0  0  0  0  0  0  0  0  0  0  0
   10.2566   -0.5050    0.0000 C   0  0  0  0  0  0  0  0  0  0  0  0
    2.0000    3.8453    0.0000 C   0  0  0  0  0  0  0  0  0  0  0  0
    3.5000    4.7113    0.0000 C   0  0  0  0  0  0  0  0  0  0  0  0
    8.9209   -1.9936    0.0000 C   0  0  0  0  0  0  0  0  0  0  0  0
    2.5000    4.7113    0.0000 C   0  0  0  0  0  0  0  0  0  0  0  0
   10.5673   -1.4555    0.0000 C   0  0  0  0  0  0  0  0  0  0  0  0
    8.2531   -2.7379    0.0000 C   0  0  0  0  0  0  0  0  0  0  0  0
   10.5673   -3.0650    0.0000 C   0  0  0  0  0  0  0  0  0  0  0  0
   11.5178   -2.7543    0.0000 C   0  0  0  0  0  0  0  0  0  0  0  0
   10.3611   -4.0435    0.0000 C   0  0  0  0  0  0  0  0  0  0  0  0
   12.2621   -3.4221    0.0000 C   0  0  0  0  0  0  0  0  0  0  0  0
    6.6067   -3.2760    0.0000 C   0  0  0  0  0  0  0  0  0  0  0  0
   11.1054   -4.7113    0.0000 C   0  0  0  0  0  0  0  0  0  0  0  0
   12.0559   -4.4006    0.0000 C   0  0  0  0  0  0  0  0  0  0  0  0
    6.7977    3.7298    0.0000 H   0  0  0  0  0  0  0  0  0  0  0  0
    5.4675    1.1383    0.0000 H   0  0  0  0  0  0  0  0  0  0  0  0
    6.2646    1.1383    0.0000 H   0  0  0  0  0  0  0  0  0  0  0  0
    7.2408    1.3692    0.0000 H   0  0  0  0  0  0  0  0  0  0  0  0
    6.2646    4.0882    0.0000 H   0  0  0  0  0  0  0  0  0  0  0  0
    5.4675    4.0882    0.0000 H   0  0  0  0  0  0  0  0  0  0  0  0
    8.2156    3.7272    0.0000 H   0  0  0  0  0  0  0  0  0  0  0  0
    7.4272    3.9849    0.0000 H   0  0  0  0  0  0  0  0  0  0  0  0
    4.7880    3.6958    0.0000 H   0  0  0  0  0  0  0  0  0  0  0  0
    4.3894    3.0056    0.0000 H   0  0  0  0  0  0  0  0  0  0  0  0
    8.7228    2.1985    0.0000 H   0  0  0  0  0  0  0  0  0  0  0  0
    8.7228    3.0280    0.0000 H   0  0  0  0  0  0  0  0  0  0  0  0
    3.4174    1.9012    0.0000 H   0  0  0  0  0  0  0  0  0  0  0  0
    4.1077    1.5026    0.0000 H   0  0  0  0  0  0  0  0  0  0  0  0
    4.8100    0.7103    0.0000 H   0  0  0  0  0  0  0  0  0  0  0  0
    3.8800    1.2472    0.0000 H   0  0  0  0  0  0  0  0  0  0  0  0
    9.3815    1.1132    0.0000 H   0  0  0  0  0  0  0  0  0  0  0  0
    9.6922    0.1627    0.0000 H   0  0  0  0  0  0  0  0  0  0  0  0
    2.1900    2.4423    0.0000 H   0  0  0  0  0  0  0  0  0  0  0  0
    4.6200    3.8453    0.0000 H   0  0  0  0  0  0  0  0  0  0  0  0
    8.2277   -0.5552    0.0000 H   0  0  0  0  0  0  0  0  0  0  0  0
    8.0633   -1.3351    0.0000 H   0  0  0  0  0  0  0  0  0  0  0  0
    1.3800    3.8453    0.0000 H   0  0  0  0  0  0  0  0  0  0  0  0
    3.8100    5.2482    0.0000 H   0  0  0  0  0  0  0  0  0  0  0  0
    9.3035   -2.4815    0.0000 H   0  0  0  0  0  0  0  0  0  0  0  0
    9.4678   -1.7016    0.0000 H   0  0  0  0  0  0  0  0  0  0  0  0
    2.1900    5.2482    0.0000 H   0  0  0  0  0  0  0  0  0  0  0  0
    8.0218   -3.3131    0.0000 H   0  0  0  0  0  0  0  0  0  0  0  0
    8.7794   -3.0655    0.0000 H   0  0  0  0  0  0  0  0  0  0  0  0
    9.7717   -4.2361    0.0000 H   0  0  0  0  0  0  0  0  0  0  0  0
   12.8514   -3.2295    0.0000 H   0  0  0  0  0  0  0  0  0  0  0  0
   10.9775   -5.3180    0.0000 H   0  0  0  0  0  0  0  0  0  0  0  0
   12.5173   -4.8147    0.0000 H   0  0  0  0  0  0  0  0  0  0  0  0
    5.2142   -3.5312    0.0000 H   0  0  0  0  0  0  0  0  0  0  0  0
    5.4356   -2.4804    0.0000 H   0  0  0  0  0  0  0  0  0  0  0  0
    6.5033   -4.6880    0.0000 H   0  0  0  0  0  0  0  0  0  0  0  0
    7.5241   -4.3543    0.0000 H   0  0  0  0  0  0  0  0  0  0  0  0
  1 31  1  0  0  0  0
  1 33  1  0  0  0  0
  2 20  2  0  0  0  0
  3 26  2  0  0  0  0
  4 11  1  0  0  0  0
  4 13  1  0  0  0  0
  4 14  1  0  0  0  0
 12  5  1  1  0  0  0
  5 54  1  0  0  0  0
  5 55  1  0  0  0  0
  6 20  1  0  0  0  0
 22  6  1  6  0  0  0
  6 56  1  0  0  0  0
  7 31  2  0  0  0  0
  7 34  1  0  0  0  0
  8 32  1  0  0  0  0
  8 37  2  0  0  0  0
  9 37  1  0  0  0  0
  9 73  1  0  0  0  0
  9 74  1  0  0  0  0
 10 37  1  0  0  0  0
 10 75  1  0  0  0  0
 10 76  1  0  0  0  0
 11 15  1  0  0  0  0
 11 16  1  0  0  0  0
 11 40  1  0  0  0  0
 12 13  1  0  0  0  0
 12 17  1  0  0  0  0
 12 19  1  0  0  0  0
 13 41  1  0  0  0  0
 13 42  1  0  0  0  0
 14 18  1  0  0  0  0
 14 20  1  1  0  0  0
 14 43  1  0  0  0  0
 15 17  1  0  0  0  0
 15 44  1  0  0  0  0
 15 45  1  0  0  0  0
 16 18  1  0  0  0  0
 16 46  1  0  0  0  0
 16 47  1  0  0  0  0
 17 48  1  0  0  0  0
 17 49  1  0  0  0  0
 18 50  1  0  0  0  0
 18 51  1  0  0  0  0
 19 21  1  0  0  0  0
 19 52  1  0  0  0  0
 19 53  1  0  0  0  0
 21 23  2  0  0  0  0
 21 24  1  0  0  0  0
 22 25  1  0  0  0  0
 22 26  1  0  0  0  0
 22 57  1  0  0  0  0
 23 27  1  0  0  0  0
 23 58  1  0  0  0  0
 24 28  2  0  0  0  0
 24 59  1  0  0  0  0
 25 29  1  0  0  0  0
 25 60  1  0  0  0  0
 25 61  1  0  0  0  0
 26 31  1  0  0  0  0
 27 30  2  0  0  0  0
 27 62  1  0  0  0  0
 28 30  1  0  0  0  0
 28 63  1  0  0  0  0
 29 32  1  0  0  0  0
 29 64  1  0  0  0  0
 29 65  1  0  0  0  0
 30 66  1  0  0  0  0
 32 67  1  0  0  0  0
 32 68  1  0  0  0  0
 33 34  1  0  0  0  0
 33 35  2  0  0  0  0
 34 36  2  0  0  0  0
 35 38  1  0  0  0  0
 35 69  1  0  0  0  0
 36 39  1  0  0  0  0
 36 70  1  0  0  0  0
 38 39  2  0  0  0  0
 38 71  1  0  0  0  0
 39 72  1  0  0  0  0
M  END
> <PUBCHEM_COMPOUND_CID>
9850467

> <PUBCHEM_COMPOUND_CANONICALIZED>
1

> <PUBCHEM_CACTVS_COMPLEXITY>
893

> <PUBCHEM_CACTVS_HBOND_ACCEPTOR>
7

> <PUBCHEM_CACTVS_HBOND_DONOR>
4

> <PUBCHEM_CACTVS_ROTATABLE_BOND>
10

> <PUBCHEM_CACTVS_SUBSKEYS>
AAADcfB7sABAAAAAAAAAAAAAAAAAAWLAAAA8YIAAAAAAAFgB9AAAHgQQAAAADKzB3gQxwbPIEAisA6VydACD8KFjCjhImL24ZJgIYLLg0bGUIAhglgDoyAcYicCeAAAAAAAAAQAAAAAAAAACAAAAAAAAAA==

> <PUBCHEM_IUPAC_OPENEYE_NAME>
(3S,6R)-6-amino-N-[(1S)-1-(1,3-benzothiazole-2-carbonyl)-4-guanidino-butyl]-6-benzyl-2,3,5,7,8,8a-hexahydro-1H-indolizine-3-carboxamide

> <PUBCHEM_IUPAC_CAS_NAME>
(3S,6R)-6-amino-N-[(2S)-1-(1,3-benzothiazol-2-yl)-5-(diaminomethylideneamino)-1-oxopentan-2-yl]-6-(phenylmethyl)-2,3,5,7,8,8a-hexahydro-1H-indolizine-3-carboxamide

> <PUBCHEM_IUPAC_NAME_MARKUP>
(3<I>S</I>,6<I>R</I>)-6-amino-<I>N</I>-[(2<I>S</I>)-1-(1,3-benzothiazol-2-yl)-5-(diaminomethylideneamino)-1-oxopentan-2-yl]-6-benzyl-2,3,5,7,8,8<I>a</I>-hexahydro-1<I>H</I>-indolizine-3-carboxamide

> <PUBCHEM_IUPAC_NAME>
(3S,6R)-6-amino-N-[(2S)-1-(1,3-benzothiazol-2-yl)-5-(diaminomethylideneamino)-1-oxopentan-2-yl]-6-benzyl-2,3,5,7,8,8a-hexahydro-1H-indolizine-3-carboxamide

> <PUBCHEM_IUPAC_SYSTEMATIC_NAME>
(3S,6R)-6-azanyl-N-[(2S)-1-(1,3-benzothiazol-2-yl)-5-[bis(azanyl)methylideneamino]-1-oxidanylidene-pentan-2-yl]-6-(phenylmethyl)-2,3,5,7,8,8a-hexahydro-1H-indolizine-3-carboxamide

> <PUBCHEM_IUPAC_TRADITIONAL_NAME>
(3S,6R)-6-amino-N-[(1S)-1-(1,3-benzothiazole-2-carbonyl)-4-guanidino-butyl]-6-benzyl-indolizidine-3-carboxamide

> <PUBCHEM_IUPAC_INCHI>
InChI=1S/C29H37N7O2S/c30-28(31)33-16-6-10-22(25(37)27-35-21-9-4-5-11-24(21)39-27)34-26(38)23-13-12-20-14-15-29(32,18-36(20)23)17-19-7-2-1-3-8-19/h1-5,7-9,11,20,22-23H,6,10,12-18,32H2,(H,34,38)(H4,30,31,33)/t20?,22-,23-,29+/m0/s1

> <PUBCHEM_IUPAC_INCHIKEY>
MJPRZTFMWHJGMK-FFILHAAMSA-N

> <PUBCHEM_XLOGP3_AA>
3

> <PUBCHEM_EXACT_MASS>
547.27294462

> <PUBCHEM_MOLECULAR_FORMULA>
C29H37N7O2S

> <PUBCHEM_MOLECULAR_WEIGHT>
547.7

> <PUBCHEM_SMILES>
C1CC2CC[C@](CN2[C@@H]1C(=O)N[C@@H](CCCN=C(N)N)C(=O)C3=NC4=CC=CC=C4S3)(CC5=CC=CC=C5)N

> <PUBCHEM_OPENEYE_CAN_SMILES>
C1CC(N2C1CCC(C2)(CC3=CC=CC=C3)N)C(=O)NC(CCCN=C(N)N)C(=O)C4=NC5=CC=CC=C5S4

> <PUBCHEM_OPENEYE_ISO_SMILES>
C1CC2CC[C@](CN2[C@@H]1C(=O)N[C@@H](CCCN=C(N)N)C(=O)C3=NC4=CC=CC=C4S3)(CC5=CC=CC=C5)N

> <PUBCHEM_CACTVS_TPSA>
181

> <PUBCHEM_MONOISOTOPIC_WEIGHT>
547.27294462

> <PUBCHEM_TOTAL_CHARGE>
0

> <PUBCHEM_HEAVY_ATOM_COUNT>
39

> <PUBCHEM_ATOM_DEF_STEREO_COUNT>
3

> <PUBCHEM_ATOM_UDEF_STEREO_COUNT>
1

> <PUBCHEM_BOND_DEF_STEREO_COUNT>
0

> <PUBCHEM_BOND_UDEF_STEREO_COUNT>
0

> <PUBCHEM_ISOTOPIC_ATOM_COUNT>
0

> <PUBCHEM_COMPONENT_COUNT>
1

> <PUBCHEM_CACTVS_TAUTO_COUNT>
-1

> <PUBCHEM_COORDINATE_TYPE>
1
5
255

> <PUBCHEM_BONDANNOTATIONS>
1  31  8
1  33  8
11  16  3
14  20  5
21  23  8
21  24  8
23  27  8
24  28  8
27  30  8
28  30  8
33  34  8
33  35  8
34  36  8
35  38  8
36  39  8
38  39  8
12  5  5
22  6  6
7  31  8
7  34  8

$$$$
