44328766
  -OEChem-03202507342D

 51 53  0     0  0  0  0  0  0999 V2000
    8.6097    2.9670    0.0000 O   0  0  0  0  0  0  0  0  0  0  0  0
    6.5406    5.8149    0.0000 O   0  0  0  0  0  0  0  0  0  0  0  0
    6.5406    2.2947    0.0000 N   0  0  0  0  0  0  0  0  0  0  0  0
    4.6783    3.2501    0.0000 N   0  0  0  0  0  0  0  0  0  0  0  0
    7.6210   -2.7879    0.0000 N   0  0  0  0  0  0  0  0  0  0  0  0
    7.8007    4.5548    0.0000 N   0  0  0  0  0  0  0  0  0  0  0  0
    8.6502   -5.2252    0.0000 N   0  0  0  0  0  0  0  0  0  0  0  0
    7.5699   -0.1426    0.0000 C   0  0  0  0  0  0  0  0  0  0  0  0
    6.9008    0.6005    0.0000 C   0  0  0  0  0  0  0  0  0  0  0  0
    7.2609   -1.0937    0.0000 C   0  0  0  0  0  0  0  0  0  0  0  0
    7.2098    1.5516    0.0000 C   0  0  0  0  0  0  0  0  0  0  0  0
    7.9300   -1.8368    0.0000 C   0  0  0  0  0  0  0  0  0  0  0  0
    6.8497    3.2458    0.0000 C   0  0  0  0  0  0  0  0  0  0  0  0
    6.2619    4.0548    0.0000 C   0  0  0  0  0  0  0  0  0  0  0  0
    5.2619    4.0548    0.0000 C   0  0  0  0  0  0  0  0  0  0  0  0
    3.7320    3.5548    0.0000 C   0  0  0  0  0  0  0  0  0  0  0  0
    3.7320    4.5548    0.0000 C   0  0  0  0  0  0  0  0  0  0  0  0
    4.6783    4.8595    0.0000 C   0  0  0  0  0  0  0  0  0  0  0  0
    7.8007    3.5548    0.0000 C   0  0  0  0  0  0  0  0  0  0  0  0
    6.8497    4.8638    0.0000 C   0  0  0  0  0  0  0  0  0  0  0  0
    8.2901   -3.5310    0.0000 C   0  0  0  0  0  0  0  0  0  0  0  0
    2.8660    3.0548    0.0000 C   0  0  0  0  0  0  0  0  0  0  0  0
    2.8660    5.0548    0.0000 C   0  0  0  0  0  0  0  0  0  0  0  0
    7.9811   -4.4821    0.0000 C   0  0  0  0  0  0  0  0  0  0  0  0
    2.0000    3.5548    0.0000 C   0  0  0  0  0  0  0  0  0  0  0  0
    2.0000    4.5548    0.0000 C   0  0  0  0  0  0  0  0  0  0  0  0
    8.1173   -0.4337    0.0000 H   0  0  0  0  0  0  0  0  0  0  0  0
    7.9516    0.3460    0.0000 H   0  0  0  0  0  0  0  0  0  0  0  0
    6.3533    0.8916    0.0000 H   0  0  0  0  0  0  0  0  0  0  0  0
    6.5190    0.1120    0.0000 H   0  0  0  0  0  0  0  0  0  0  0  0
    6.7134   -0.8026    0.0000 H   0  0  0  0  0  0  0  0  0  0  0  0
    6.8792   -1.5822    0.0000 H   0  0  0  0  0  0  0  0  0  0  0  0
    7.7572    1.2605    0.0000 H   0  0  0  0  0  0  0  0  0  0  0  0
    7.5915    2.0402    0.0000 H   0  0  0  0  0  0  0  0  0  0  0  0
    8.4774   -2.1279    0.0000 H   0  0  0  0  0  0  0  0  0  0  0  0
    8.3117   -1.3482    0.0000 H   0  0  0  0  0  0  0  0  0  0  0  0
    5.9342    2.1658    0.0000 H   0  0  0  0  0  0  0  0  0  0  0  0
    4.8709    2.6608    0.0000 H   0  0  0  0  0  0  0  0  0  0  0  0
    4.8709    5.4489    0.0000 H   0  0  0  0  0  0  0  0  0  0  0  0
    7.0145   -2.9168    0.0000 H   0  0  0  0  0  0  0  0  0  0  0  0
    8.8376   -3.8221    0.0000 H   0  0  0  0  0  0  0  0  0  0  0  0
    8.6718   -3.0424    0.0000 H   0  0  0  0  0  0  0  0  0  0  0  0
    8.3023    4.9192    0.0000 H   0  0  0  0  0  0  0  0  0  0  0  0
    2.8660    2.4348    0.0000 H   0  0  0  0  0  0  0  0  0  0  0  0
    2.8660    5.6748    0.0000 H   0  0  0  0  0  0  0  0  0  0  0  0
    7.4337   -4.1910    0.0000 H   0  0  0  0  0  0  0  0  0  0  0  0
    7.5994   -4.9706    0.0000 H   0  0  0  0  0  0  0  0  0  0  0  0
    1.4631    3.2448    0.0000 H   0  0  0  0  0  0  0  0  0  0  0  0
    1.4631    4.8648    0.0000 H   0  0  0  0  0  0  0  0  0  0  0  0
    8.4586   -5.8149    0.0000 H   0  0  0  0  0  0  0  0  0  0  0  0
    9.2567   -5.0963    0.0000 H   0  0  0  0  0  0  0  0  0  0  0  0
  1 19  2  0  0  0  0
  2 20  2  0  0  0  0
  3 11  1  0  0  0  0
  3 13  1  0  0  0  0
  3 37  1  0  0  0  0
  4 15  1  0  0  0  0
  4 16  1  0  0  0  0
  4 38  1  0  0  0  0
  5 12  1  0  0  0  0
  5 21  1  0  0  0  0
  5 40  1  0  0  0  0
  6 19  1  0  0  0  0
  6 20  1  0  0  0  0
  6 43  1  0  0  0  0
  7 24  1  0  0  0  0
  7 50  1  0  0  0  0
  7 51  1  0  0  0  0
  8  9  1  0  0  0  0
  8 10  1  0  0  0  0
  8 27  1  0  0  0  0
  8 28  1  0  0  0  0
  9 11  1  0  0  0  0
  9 29  1  0  0  0  0
  9 30  1  0  0  0  0
 10 12  1  0  0  0  0
 10 31  1  0  0  0  0
 10 32  1  0  0  0  0
 11 33  1  0  0  0  0
 11 34  1  0  0  0  0
 12 35  1  0  0  0  0
 12 36  1  0  0  0  0
 13 14  2  0  0  0  0
 13 19  1  0  0  0  0
 14 15  1  0  0  0  0
 14 20  1  0  0  0  0
 15 18  2  0  0  0  0
 16 17  1  0  0  0  0
 16 22  2  0  0  0  0
 17 18  1  0  0  0  0
 17 23  2  0  0  0  0
 18 39  1  0  0  0  0
 21 24  1  0  0  0  0
 21 41  1  0  0  0  0
 21 42  1  0  0  0  0
 22 25  1  0  0  0  0
 22 44  1  0  0  0  0
 23 26  1  0  0  0  0
 23 45  1  0  0  0  0
 24 46  1  0  0  0  0
 24 47  1  0  0  0  0
 25 26  2  0  0  0  0
 25 48  1  0  0  0  0
 26 49  1  0  0  0  0
M  END
> <PUBCHEM_COMPOUND_CID>
44328766

> <PUBCHEM_COMPOUND_CANONICALIZED>
1

> <PUBCHEM_CACTVS_COMPLEXITY>
548

> <PUBCHEM_CACTVS_HBOND_ACCEPTOR>
5

> <PUBCHEM_CACTVS_HBOND_DONOR>
5

> <PUBCHEM_CACTVS_ROTATABLE_BOND>
10

> <PUBCHEM_CACTVS_SUBSKEYS>
AAADceB7sAAAAAAAAAAAAAAAAAAAAWIAAAAwAAAAAAAAAFgB8AAAHgAQAAAADAjBngQwwPLJkACoAyVyVACCgCAhAiAImaG4ZNgIYPrA1bGUIAhglCDIyUcYiICOAAAAAAACAAAAAAAAAAQAAAAAAAAAAA==

> <PUBCHEM_IUPAC_OPENEYE_NAME>
3-[5-(2-aminoethylamino)pentylamino]-4-(1H-indol-2-yl)pyrrole-2,5-dione

> <PUBCHEM_IUPAC_CAS_NAME>
3-[5-(2-aminoethylamino)pentylamino]-4-(1H-indol-2-yl)pyrrole-2,5-dione

> <PUBCHEM_IUPAC_NAME_MARKUP>
3-[5-(2-aminoethylamino)pentylamino]-4-(1<I>H</I>-indol-2-yl)pyrrole-2,5-dione

> <PUBCHEM_IUPAC_NAME>
3-[5-(2-aminoethylamino)pentylamino]-4-(1H-indol-2-yl)pyrrole-2,5-dione

> <PUBCHEM_IUPAC_SYSTEMATIC_NAME>
3-[5-(2-azanylethylamino)pentylamino]-4-(1H-indol-2-yl)pyrrole-2,5-dione

> <PUBCHEM_IUPAC_TRADITIONAL_NAME>
3-[5-(2-aminoethylamino)pentylamino]-4-(1H-indol-2-yl)-3-pyrroline-2,5-quinone

> <PUBCHEM_IUPAC_INCHI>
InChI=1S/C19H25N5O2/c20-8-11-21-9-4-1-5-10-22-17-16(18(25)24-19(17)26)15-12-13-6-2-3-7-14(13)23-15/h2-3,6-7,12,21,23H,1,4-5,8-11,20H2,(H2,22,24,25,26)

> <PUBCHEM_IUPAC_INCHIKEY>
QINMKCLADNXCED-UHFFFAOYSA-N

> <PUBCHEM_XLOGP3_AA>
1

> <PUBCHEM_EXACT_MASS>
355.20082506

> <PUBCHEM_MOLECULAR_FORMULA>
C19H25N5O2

> <PUBCHEM_MOLECULAR_WEIGHT>
355.4

> <PUBCHEM_SMILES>
C1=CC=C2C(=C1)C=C(N2)C3=C(C(=O)NC3=O)NCCCCCNCCN

> <PUBCHEM_OPENEYE_CAN_SMILES>
C1=CC=C2C(=C1)C=C(N2)C3=C(C(=O)NC3=O)NCCCCCNCCN

> <PUBCHEM_OPENEYE_ISO_SMILES>
C1=CC=C2C(=C1)C=C(N2)C3=C(C(=O)NC3=O)NCCCCCNCCN

> <PUBCHEM_CACTVS_TPSA>
112

> <PUBCHEM_MONOISOTOPIC_WEIGHT>
355.20082506

> <PUBCHEM_TOTAL_CHARGE>
0

> <PUBCHEM_HEAVY_ATOM_COUNT>
26

> <PUBCHEM_ATOM_DEF_STEREO_COUNT>
0

> <PUBCHEM_ATOM_UDEF_STEREO_COUNT>
0

> <PUBCHEM_BOND_DEF_STEREO_COUNT>
0

> <PUBCHEM_BOND_UDEF_STEREO_COUNT>
0

> <PUBCHEM_ISOTOPIC_ATOM_COUNT>
0

> <PUBCHEM_COMPONENT_COUNT>
1

> <PUBCHEM_CACTVS_TAUTO_COUNT>
-1

> <PUBCHEM_COORDINATE_TYPE>
1
5
255

> <PUBCHEM_BONDANNOTATIONS>
15  18  8
16  17  8
16  22  8
17  18  8
17  23  8
22  25  8
23  26  8
25  26  8
4  15  8
4  16  8

$$$$
