49830837
  -OEChem-03202503062D

 50 52  0     1  0  0  0  0  0999 V2000
   10.9777   -3.0000    0.0000 Cl  0  0  0  0  0  0  0  0  0  0  0  0
    7.5136   -1.0000    0.0000 O   0  0  0  0  0  0  0  0  0  0  0  0
    2.6166    0.0409    0.0000 O   0  0  0  0  0  0  0  0  0  0  0  0
    2.7976   -1.6817    0.0000 O   0  0  0  0  0  0  0  0  0  0  0  0
   10.9777   -0.0000    0.0000 O   0  0  0  0  0  0  0  0  0  0  0  0
    9.2457   -0.0000    0.0000 N   0  0  0  0  0  0  0  0  0  0  0  0
   10.1117    1.5000    0.0000 N   0  0  0  0  0  0  0  0  0  0  0  0
   11.8438    1.5000    0.0000 N   0  0  0  0  0  0  0  0  0  0  0  0
   11.8438    3.5000    0.0000 N   0  0  0  0  0  0  0  0  0  0  0  0
   14.4418    4.0000    0.0000 N   0  0  0  0  0  0  0  0  0  0  0  0
    5.7816   -1.0000    0.0000 C   0  0  3  0  0  0  0  0  0  0  0  0
    4.8680   -1.4067    0.0000 C   0  0  0  0  0  0  0  0  0  0  0  0
    4.1989   -0.6636    0.0000 C   0  0  3  0  0  0  0  0  0  0  0  0
    5.6771   -0.0055    0.0000 C   0  0  0  0  0  0  0  0  0  0  0  0
    4.6989    0.2024    0.0000 C   0  0  0  0  0  0  0  0  0  0  0  0
    6.6476   -1.5000    0.0000 C   0  0  0  0  0  0  0  0  0  0  0  0
    3.2044   -0.7681    0.0000 C   0  0  0  0  0  0  0  0  0  0  0  0
    8.3797   -1.5000    0.0000 C   0  0  0  0  0  0  0  0  0  0  0  0
    9.2457   -1.0000    0.0000 C   0  0  0  0  0  0  0  0  0  0  0  0
    8.3797   -2.5000    0.0000 C   0  0  0  0  0  0  0  0  0  0  0  0
    9.2457   -3.0000    0.0000 C   0  0  0  0  0  0  0  0  0  0  0  0
   10.1117   -1.5000    0.0000 C   0  0  0  0  0  0  0  0  0  0  0  0
   10.1117   -2.5000    0.0000 C   0  0  0  0  0  0  0  0  0  0  0  0
    9.2457   -4.0000    0.0000 C   0  0  0  0  0  0  0  0  0  0  0  0
   10.1117    0.5000    0.0000 C   0  0  0  0  0  0  0  0  0  0  0  0
   10.9777    2.0000    0.0000 C   0  0  0  0  0  0  0  0  0  0  0  0
   10.9777    3.0000    0.0000 C   0  0  0  0  0  0  0  0  0  0  0  0
   12.7098    2.0000    0.0000 C   0  0  0  0  0  0  0  0  0  0  0  0
   12.7098    3.0000    0.0000 C   0  0  0  0  0  0  0  0  0  0  0  0
   13.5758    3.5000    0.0000 C   0  0  0  0  0  0  0  0  0  0  0  0
    6.3016   -0.6623    0.0000 H   0  0  0  0  0  0  0  0  0  0  0  0
    4.3665   -1.7712    0.0000 H   0  0  0  0  0  0  0  0  0  0  0  0
    5.1780   -1.9437    0.0000 H   0  0  0  0  0  0  0  0  0  0  0  0
    3.9767   -1.2424    0.0000 H   0  0  0  0  0  0  0  0  0  0  0  0
    6.2971   -0.0055    0.0000 H   0  0  0  0  0  0  0  0  0  0  0  0
    5.7419    0.6111    0.0000 H   0  0  0  0  0  0  0  0  0  0  0  0
    4.8905    0.7921    0.0000 H   0  0  0  0  0  0  0  0  0  0  0  0
    4.1325    0.4546    0.0000 H   0  0  0  0  0  0  0  0  0  0  0  0
    6.2491   -1.9750    0.0000 H   0  0  0  0  0  0  0  0  0  0  0  0
    7.0461   -1.9750    0.0000 H   0  0  0  0  0  0  0  0  0  0  0  0
    2.0000   -0.0239    0.0000 H   0  0  0  0  0  0  0  0  0  0  0  0
    7.8427   -2.8100    0.0000 H   0  0  0  0  0  0  0  0  0  0  0  0
   10.6486   -1.1900    0.0000 H   0  0  0  0  0  0  0  0  0  0  0  0
    8.7088    0.3100    0.0000 H   0  0  0  0  0  0  0  0  0  0  0  0
    8.6257   -4.0000    0.0000 H   0  0  0  0  0  0  0  0  0  0  0  0
    9.2457   -4.6200    0.0000 H   0  0  0  0  0  0  0  0  0  0  0  0
    9.8657   -4.0000    0.0000 H   0  0  0  0  0  0  0  0  0  0  0  0
    9.5748    1.8100    0.0000 H   0  0  0  0  0  0  0  0  0  0  0  0
   10.4408    3.3100    0.0000 H   0  0  0  0  0  0  0  0  0  0  0  0
   13.2467    1.6900    0.0000 H   0  0  0  0  0  0  0  0  0  0  0  0
  1 23  1  0  0  0  0
  2 16  1  0  0  0  0
  2 18  1  0  0  0  0
  3 17  1  0  0  0  0
  3 41  1  0  0  0  0
  4 17  2  0  0  0  0
  5 25  2  0  0  0  0
  6 19  1  0  0  0  0
  6 25  1  0  0  0  0
  6 44  1  0  0  0  0
  7 25  1  0  0  0  0
  7 26  1  0  0  0  0
  7 48  1  0  0  0  0
  8 26  2  0  0  0  0
  8 28  1  0  0  0  0
  9 27  2  0  0  0  0
  9 29  1  0  0  0  0
 10 30  3  0  0  0  0
 11 12  1  0  0  0  0
 11 14  1  0  0  0  0
 11 16  1  0  0  0  0
 11 31  1  0  0  0  0
 12 13  1  0  0  0  0
 12 32  1  0  0  0  0
 12 33  1  0  0  0  0
 13 15  1  0  0  0  0
 13 17  1  0  0  0  0
 13 34  1  0  0  0  0
 14 15  1  0  0  0  0
 14 35  1  0  0  0  0
 14 36  1  0  0  0  0
 15 37  1  0  0  0  0
 15 38  1  0  0  0  0
 16 39  1  0  0  0  0
 16 40  1  0  0  0  0
 18 19  2  0  0  0  0
 18 20  1  0  0  0  0
 19 22  1  0  0  0  0
 20 21  2  0  0  0  0
 20 42  1  0  0  0  0
 21 23  1  0  0  0  0
 21 24  1  0  0  0  0
 22 23  2  0  0  0  0
 22 43  1  0  0  0  0
 24 45  1  0  0  0  0
 24 46  1  0  0  0  0
 24 47  1  0  0  0  0
 26 27  1  0  0  0  0
 27 49  1  0  0  0  0
 28 29  2  0  0  0  0
 28 50  1  0  0  0  0
 29 30  1  0  0  0  0
M  END
> <PUBCHEM_COMPOUND_CID>
49830837

> <PUBCHEM_COMPOUND_CANONICALIZED>
1

> <PUBCHEM_CACTVS_COMPLEXITY>
671

> <PUBCHEM_CACTVS_HBOND_ACCEPTOR>
7

> <PUBCHEM_CACTVS_HBOND_DONOR>
3

> <PUBCHEM_CACTVS_ROTATABLE_BOND>
6

> <PUBCHEM_CACTVS_SUBSKEYS>
AAADceB7uAAEAAAAAAAAAAAAAAAAAYAAAAA8QAAAAAAAAAABwAAAHgIQCAAADQ7hniY//pLIFgC4Bzb3fACiiC0xNyAB2AE/foiO5nLFs5uXeCjs1RPY6CeY7BgOCCABAAIBEAAQQAIABAIgAQAAAAAAAA==

> <PUBCHEM_IUPAC_OPENEYE_NAME>
3-[[4-chloro-2-[(5-cyanopyrazin-2-yl)carbamoylamino]-5-methyl-phenoxy]methyl]cyclopentanecarboxylic acid

> <PUBCHEM_IUPAC_CAS_NAME>
3-[[4-chloro-2-[[[(5-cyano-2-pyrazinyl)amino]-oxomethyl]amino]-5-methylphenoxy]methyl]-1-cyclopentanecarboxylic acid

> <PUBCHEM_IUPAC_NAME_MARKUP>
3-[[4-chloro-2-[(5-cyanopyrazin-2-yl)carbamoylamino]-5-methylphenoxy]methyl]cyclopentane-1-carboxylic acid

> <PUBCHEM_IUPAC_NAME>
3-[[4-chloro-2-[(5-cyanopyrazin-2-yl)carbamoylamino]-5-methylphenoxy]methyl]cyclopentane-1-carboxylic acid

> <PUBCHEM_IUPAC_SYSTEMATIC_NAME>
3-[[4-chloranyl-2-[(5-cyanopyrazin-2-yl)carbamoylamino]-5-methyl-phenoxy]methyl]cyclopentane-1-carboxylic acid

> <PUBCHEM_IUPAC_TRADITIONAL_NAME>
3-[[4-chloro-2-[(5-cyanopyrazin-2-yl)carbamoylamino]-5-methyl-phenoxy]methyl]cyclopentanecarboxylic acid

> <PUBCHEM_IUPAC_INCHI>
InChI=1S/C20H20ClN5O4/c1-11-4-17(30-10-12-2-3-13(5-12)19(27)28)16(6-15(11)21)25-20(29)26-18-9-23-14(7-22)8-24-18/h4,6,8-9,12-13H,2-3,5,10H2,1H3,(H,27,28)(H2,24,25,26,29)

> <PUBCHEM_IUPAC_INCHIKEY>
XPPLYAKZGXYPOZ-UHFFFAOYSA-N

> <PUBCHEM_XLOGP3_AA>
2.3

> <PUBCHEM_EXACT_MASS>
429.1203818

> <PUBCHEM_MOLECULAR_FORMULA>
C20H20ClN5O4

> <PUBCHEM_MOLECULAR_WEIGHT>
429.9

> <PUBCHEM_SMILES>
CC1=CC(=C(C=C1Cl)NC(=O)NC2=NC=C(N=C2)C#N)OCC3CCC(C3)C(=O)O

> <PUBCHEM_OPENEYE_CAN_SMILES>
CC1=CC(=C(C=C1Cl)NC(=O)NC2=NC=C(N=C2)C#N)OCC3CCC(C3)C(=O)O

> <PUBCHEM_OPENEYE_ISO_SMILES>
CC1=CC(=C(C=C1Cl)NC(=O)NC2=NC=C(N=C2)C#N)OCC3CCC(C3)C(=O)O

> <PUBCHEM_CACTVS_TPSA>
137

> <PUBCHEM_MONOISOTOPIC_WEIGHT>
429.1203818

> <PUBCHEM_TOTAL_CHARGE>
0

> <PUBCHEM_HEAVY_ATOM_COUNT>
30

> <PUBCHEM_ATOM_DEF_STEREO_COUNT>
0

> <PUBCHEM_ATOM_UDEF_STEREO_COUNT>
2

> <PUBCHEM_BOND_DEF_STEREO_COUNT>
0

> <PUBCHEM_BOND_UDEF_STEREO_COUNT>
0

> <PUBCHEM_ISOTOPIC_ATOM_COUNT>
0

> <PUBCHEM_COMPONENT_COUNT>
1

> <PUBCHEM_CACTVS_TAUTO_COUNT>
-1

> <PUBCHEM_COORDINATE_TYPE>
1
5
255

> <PUBCHEM_BONDANNOTATIONS>
11  16  3
13  17  3
18  19  8
18  20  8
19  22  8
20  21  8
21  23  8
22  23  8
26  27  8
28  29  8
8  26  8
8  28  8
9  27  8
9  29  8

$$$$
