24905189
  -OEChem-03192523322D

 46 49  0     0  0  0  0  0  0999 V2000
    7.2566    2.1293    0.0000 O   0  0  0  0  0  0  0  0  0  0  0  0
    5.9209    3.6179    0.0000 O   0  0  0  0  0  0  0  0  0  0  0  0
    4.6783   -1.7936    0.0000 N   0  0  0  0  0  0  0  0  0  0  0  0
    5.2619   -0.9889    0.0000 N   0  0  0  0  0  0  0  0  0  0  0  0
    2.8660   -1.9889    0.0000 N   0  0  0  0  0  0  0  0  0  0  0  0
    2.0000   -0.4889    0.0000 N   0  0  0  0  0  0  0  0  0  0  0  0
    2.8660    1.0111    0.0000 N   0  0  0  0  0  0  0  0  0  0  0  0
    4.9889   -2.7442    0.0000 C   0  0  0  0  0  0  0  0  0  0  0  0
    4.4026   -3.5542    0.0000 C   0  0  0  0  0  0  0  0  0  0  0  0
    5.9405   -3.0515    0.0000 C   0  0  0  0  0  0  0  0  0  0  0  0
    4.9917   -4.3622    0.0000 C   0  0  0  0  0  0  0  0  0  0  0  0
    5.9422   -4.0515    0.0000 C   0  0  0  0  0  0  0  0  0  0  0  0
    3.7320   -1.4889    0.0000 C   0  0  0  0  0  0  0  0  0  0  0  0
    3.7320   -0.4889    0.0000 C   0  0  0  0  0  0  0  0  0  0  0  0
    4.6783   -0.1842    0.0000 C   0  0  0  0  0  0  0  0  0  0  0  0
    4.9889    0.7663    0.0000 C   0  0  0  0  0  0  0  0  0  0  0  0
    2.8660    0.0111    0.0000 C   0  0  0  0  0  0  0  0  0  0  0  0
    2.0000   -1.4889    0.0000 C   0  0  0  0  0  0  0  0  0  0  0  0
    5.9674    0.9726    0.0000 C   0  0  0  0  0  0  0  0  0  0  0  0
    4.3211    1.5106    0.0000 C   0  0  0  0  0  0  0  0  0  0  0  0
    6.2781    1.9231    0.0000 C   0  0  0  0  0  0  0  0  0  0  0  0
    4.6318    2.4612    0.0000 C   0  0  0  0  0  0  0  0  0  0  0  0
    5.6103    2.6674    0.0000 C   0  0  0  0  0  0  0  0  0  0  0  0
    7.9244    1.3850    0.0000 C   0  0  0  0  0  0  0  0  0  0  0  0
    5.2531    4.3622    0.0000 C   0  0  0  0  0  0  0  0  0  0  0  0
    5.4266   -2.3050    0.0000 H   0  0  0  0  0  0  0  0  0  0  0  0
    3.9411   -3.1401    0.0000 H   0  0  0  0  0  0  0  0  0  0  0  0
    3.9425   -3.9699    0.0000 H   0  0  0  0  0  0  0  0  0  0  0  0
    6.5572   -3.1153    0.0000 H   0  0  0  0  0  0  0  0  0  0  0  0
    6.0684   -2.4449    0.0000 H   0  0  0  0  0  0  0  0  0  0  0  0
    4.4553   -4.6731    0.0000 H   0  0  0  0  0  0  0  0  0  0  0  0
    5.2449   -4.9282    0.0000 H   0  0  0  0  0  0  0  0  0  0  0  0
    6.0722   -4.6578    0.0000 H   0  0  0  0  0  0  0  0  0  0  0  0
    6.5587   -3.9857    0.0000 H   0  0  0  0  0  0  0  0  0  0  0  0
    1.4631   -1.7989    0.0000 H   0  0  0  0  0  0  0  0  0  0  0  0
    6.3815    0.5111    0.0000 H   0  0  0  0  0  0  0  0  0  0  0  0
    3.7144    1.3828    0.0000 H   0  0  0  0  0  0  0  0  0  0  0  0
    2.3291    1.3211    0.0000 H   0  0  0  0  0  0  0  0  0  0  0  0
    3.4030    1.3211    0.0000 H   0  0  0  0  0  0  0  0  0  0  0  0
    4.2177    2.9226    0.0000 H   0  0  0  0  0  0  0  0  0  0  0  0
    7.4630    0.9709    0.0000 H   0  0  0  0  0  0  0  0  0  0  0  0
    8.3385    0.9235    0.0000 H   0  0  0  0  0  0  0  0  0  0  0  0
    8.3859    1.7991    0.0000 H   0  0  0  0  0  0  0  0  0  0  0  0
    5.7145    4.7763    0.0000 H   0  0  0  0  0  0  0  0  0  0  0  0
    4.8390    4.8237    0.0000 H   0  0  0  0  0  0  0  0  0  0  0  0
    4.7916    3.9481    0.0000 H   0  0  0  0  0  0  0  0  0  0  0  0
  1 21  1  0  0  0  0
  1 24  1  0  0  0  0
  2 23  1  0  0  0  0
  2 25  1  0  0  0  0
  3  4  1  0  0  0  0
  3  8  1  0  0  0  0
  3 13  1  0  0  0  0
  4 15  2  0  0  0  0
  5 13  2  0  0  0  0
  5 18  1  0  0  0  0
  6 17  1  0  0  0  0
  6 18  2  0  0  0  0
  7 17  1  0  0  0  0
  7 38  1  0  0  0  0
  7 39  1  0  0  0  0
  8  9  1  0  0  0  0
  8 10  1  0  0  0  0
  8 26  1  0  0  0  0
  9 11  1  0  0  0  0
  9 27  1  0  0  0  0
  9 28  1  0  0  0  0
 10 12  1  0  0  0  0
 10 29  1  0  0  0  0
 10 30  1  0  0  0  0
 11 12  1  0  0  0  0
 11 31  1  0  0  0  0
 11 32  1  0  0  0  0
 12 33  1  0  0  0  0
 12 34  1  0  0  0  0
 13 14  1  0  0  0  0
 14 15  1  0  0  0  0
 14 17  2  0  0  0  0
 15 16  1  0  0  0  0
 16 19  2  0  0  0  0
 16 20  1  0  0  0  0
 18 35  1  0  0  0  0
 19 21  1  0  0  0  0
 19 36  1  0  0  0  0
 20 22  2  0  0  0  0
 20 37  1  0  0  0  0
 21 23  2  0  0  0  0
 22 23  1  0  0  0  0
 22 40  1  0  0  0  0
 24 41  1  0  0  0  0
 24 42  1  0  0  0  0
 24 43  1  0  0  0  0
 25 44  1  0  0  0  0
 25 45  1  0  0  0  0
 25 46  1  0  0  0  0
M  END
> <PUBCHEM_COMPOUND_CID>
24905189

> <PUBCHEM_COMPOUND_CANONICALIZED>
1

> <PUBCHEM_CACTVS_COMPLEXITY>
447

> <PUBCHEM_CACTVS_HBOND_ACCEPTOR>
6

> <PUBCHEM_CACTVS_HBOND_DONOR>
1

> <PUBCHEM_CACTVS_ROTATABLE_BOND>
4

> <PUBCHEM_CACTVS_SUBSKEYS>
AAADceB7sAAAAAAAAAAAAAAAAAAAAeIAAAA8QAAAAAAAAFgB/AAAHgAYAAAADCzBnwY3tt5IFACiAyZjZACSjCsxoKAd2CAuzJiNLqLE+duEtCpsyBPK6Cew0PEOIAABAAAAQABAAAIAAACAAAAAAAAAAA==

> <PUBCHEM_IUPAC_OPENEYE_NAME>
1-cyclopentyl-3-(3,4-dimethoxyphenyl)pyrazolo[3,4-d]pyrimidin-4-amine

> <PUBCHEM_IUPAC_CAS_NAME>
1-cyclopentyl-3-(3,4-dimethoxyphenyl)-4-pyrazolo[3,4-d]pyrimidinamine

> <PUBCHEM_IUPAC_NAME_MARKUP>
1-cyclopentyl-3-(3,4-dimethoxyphenyl)pyrazolo[3,4-d]pyrimidin-4-amine

> <PUBCHEM_IUPAC_NAME>
1-cyclopentyl-3-(3,4-dimethoxyphenyl)pyrazolo[3,4-d]pyrimidin-4-amine

> <PUBCHEM_IUPAC_SYSTEMATIC_NAME>
1-cyclopentyl-3-(3,4-dimethoxyphenyl)pyrazolo[3,4-d]pyrimidin-4-amine

> <PUBCHEM_IUPAC_TRADITIONAL_NAME>
[1-cyclopentyl-3-(3,4-dimethoxyphenyl)pyrazolo[3,4-d]pyrimidin-4-yl]amine

> <PUBCHEM_IUPAC_INCHI>
InChI=1S/C18H21N5O2/c1-24-13-8-7-11(9-14(13)25-2)16-15-17(19)20-10-21-18(15)23(22-16)12-5-3-4-6-12/h7-10,12H,3-6H2,1-2H3,(H2,19,20,21)

> <PUBCHEM_IUPAC_INCHIKEY>
ULLIAFSPUSWCIL-UHFFFAOYSA-N

> <PUBCHEM_XLOGP3_AA>
2.6

> <PUBCHEM_EXACT_MASS>
339.16952493

> <PUBCHEM_MOLECULAR_FORMULA>
C18H21N5O2

> <PUBCHEM_MOLECULAR_WEIGHT>
339.4

> <PUBCHEM_SMILES>
COC1=C(C=C(C=C1)C2=NN(C3=NC=NC(=C23)N)C4CCCC4)OC

> <PUBCHEM_OPENEYE_CAN_SMILES>
COC1=C(C=C(C=C1)C2=NN(C3=NC=NC(=C23)N)C4CCCC4)OC

> <PUBCHEM_OPENEYE_ISO_SMILES>
COC1=C(C=C(C=C1)C2=NN(C3=NC=NC(=C23)N)C4CCCC4)OC

> <PUBCHEM_CACTVS_TPSA>
88.1

> <PUBCHEM_MONOISOTOPIC_WEIGHT>
339.16952493

> <PUBCHEM_TOTAL_CHARGE>
0

> <PUBCHEM_HEAVY_ATOM_COUNT>
25

> <PUBCHEM_ATOM_DEF_STEREO_COUNT>
0

> <PUBCHEM_ATOM_UDEF_STEREO_COUNT>
0

> <PUBCHEM_BOND_DEF_STEREO_COUNT>
0

> <PUBCHEM_BOND_UDEF_STEREO_COUNT>
0

> <PUBCHEM_ISOTOPIC_ATOM_COUNT>
0

> <PUBCHEM_COMPONENT_COUNT>
1

> <PUBCHEM_CACTVS_TAUTO_COUNT>
-1

> <PUBCHEM_COORDINATE_TYPE>
1
5
255

> <PUBCHEM_BONDANNOTATIONS>
13  14  8
14  15  8
14  17  8
16  19  8
16  20  8
19  21  8
20  22  8
21  23  8
22  23  8
3  13  8
3  4  8
4  15  8
5  13  8
5  18  8
6  17  8
6  18  8

$$$$
