49830947
  -OEChem-03202501092D

 24 26  0     0  0  0  0  0  0999 V2000
    2.0000    0.0912    0.0000 Cl  0  0  0  0  0  0  0  0  0  0  0  0
    4.9036    1.8558    0.0000 O   0  0  0  0  0  0  0  0  0  0  0  0
    5.8374   -1.2358    0.0000 N   0  0  0  0  0  0  0  0  0  0  0  0
    6.3374    0.9548    0.0000 N   0  0  0  0  0  0  0  0  0  0  0  0
    4.1839   -1.5221    0.0000 N   0  0  0  0  0  0  0  0  0  0  0  0
    3.1862   -1.2227    0.0000 N   0  0  0  0  0  0  0  0  0  0  0  0
    6.7384   -0.8019    0.0000 C   0  0  0  0  0  0  0  0  0  0  0  0
    6.9609    0.1730    0.0000 C   0  0  0  0  0  0  0  0  0  0  0  0
    4.7139    0.1730    0.0000 C   0  0  0  0  0  0  0  0  0  0  0  0
    4.9364   -0.8019    0.0000 C   0  0  0  0  0  0  0  0  0  0  0  0
    5.3374    0.9548    0.0000 C   0  0  0  0  0  0  0  0  0  0  0  0
    7.4909   -1.5221    0.0000 C   0  0  0  0  0  0  0  0  0  0  0  0
    7.9514    0.4953    0.0000 C   0  0  0  0  0  0  0  0  0  0  0  0
    3.7234    0.4954    0.0000 C   0  0  0  0  0  0  0  0  0  0  0  0
    8.4886   -1.2228    0.0000 C   0  0  0  0  0  0  0  0  0  0  0  0
    8.7204   -0.2073    0.0000 C   0  0  0  0  0  0  0  0  0  0  0  0
    2.9544   -0.2072    0.0000 C   0  0  0  0  0  0  0  0  0  0  0  0
    5.8374   -1.8558    0.0000 H   0  0  0  0  0  0  0  0  0  0  0  0
    6.6064    1.5134    0.0000 H   0  0  0  0  0  0  0  0  0  0  0  0
    7.3460   -2.1249    0.0000 H   0  0  0  0  0  0  0  0  0  0  0  0
    8.0824    1.1013    0.0000 H   0  0  0  0  0  0  0  0  0  0  0  0
    3.5925    1.1014    0.0000 H   0  0  0  0  0  0  0  0  0  0  0  0
    8.9415   -1.6462    0.0000 H   0  0  0  0  0  0  0  0  0  0  0  0
    9.3122   -0.0222    0.0000 H   0  0  0  0  0  0  0  0  0  0  0  0
  1 17  1  0  0  0  0
  2 11  2  0  0  0  0
  3  7  1  0  0  0  0
  3 10  1  0  0  0  0
  3 18  1  0  0  0  0
  4  8  1  0  0  0  0
  4 11  1  0  0  0  0
  4 19  1  0  0  0  0
  5  6  1  0  0  0  0
  5 10  2  0  0  0  0
  6 17  2  0  0  0  0
  7  8  1  0  0  0  0
  7 12  2  0  0  0  0
  8 13  2  0  0  0  0
  9 10  1  0  0  0  0
  9 11  1  0  0  0  0
  9 14  2  0  0  0  0
 12 15  1  0  0  0  0
 12 20  1  0  0  0  0
 13 16  1  0  0  0  0
 13 21  1  0  0  0  0
 14 17  1  0  0  0  0
 14 22  1  0  0  0  0
 15 16  2  0  0  0  0
 15 23  1  0  0  0  0
 16 24  1  0  0  0  0
M  END
> <PUBCHEM_COMPOUND_CID>
49830947

> <PUBCHEM_COMPOUND_CANONICALIZED>
1

> <PUBCHEM_CACTVS_COMPLEXITY>
314

> <PUBCHEM_CACTVS_HBOND_ACCEPTOR>
4

> <PUBCHEM_CACTVS_HBOND_DONOR>
2

> <PUBCHEM_CACTVS_ROTATABLE_BOND>
0

> <PUBCHEM_CACTVS_SUBSKEYS>
AAADcYBzoAAEAAAAAAAAAAAAAAAAAAAAAAA8QAAABYAAAAABwAAAHgIYAAAADAqBmiAx8JLAAACqAidycACSBAIlBwAdmCEwdtiIYPrB35GUoYhwnALIyecUAAAIAAAAAAAAACAAAAAAAAAAQAAAAAAAAA==

> <PUBCHEM_IUPAC_OPENEYE_NAME>
3-chloro-6,11-dihydropyridazino[3,4-b][1,5]benzodiazepin-5-one

> <PUBCHEM_IUPAC_CAS_NAME>
3-chloro-6,11-dihydropyridazino[3,4-b][1,5]benzodiazepin-5-one

> <PUBCHEM_IUPAC_NAME_MARKUP>
3-chloro-6,11-dihydropyridazino[3,4-b][1,5]benzodiazepin-5-one

> <PUBCHEM_IUPAC_NAME>
3-chloro-6,11-dihydropyridazino[3,4-b][1,5]benzodiazepin-5-one

> <PUBCHEM_IUPAC_SYSTEMATIC_NAME>
3-chloranyl-6,11-dihydropyridazino[3,4-b][1,5]benzodiazepin-5-one

> <PUBCHEM_IUPAC_TRADITIONAL_NAME>
3-chloro-6,11-dihydropyridazino[3,4-b][1,5]benzodiazepin-5-one

> <PUBCHEM_IUPAC_INCHI>
InChI=1S/C11H7ClN4O/c12-9-5-6-10(16-15-9)13-7-3-1-2-4-8(7)14-11(6)17/h1-5H,(H,13,16)(H,14,17)

> <PUBCHEM_IUPAC_INCHIKEY>
AEZICWXXUCODMN-UHFFFAOYSA-N

> <PUBCHEM_XLOGP3_AA>
1.6

> <PUBCHEM_EXACT_MASS>
246.0308386

> <PUBCHEM_MOLECULAR_FORMULA>
C11H7ClN4O

> <PUBCHEM_MOLECULAR_WEIGHT>
246.65

> <PUBCHEM_SMILES>
C1=CC=C2C(=C1)NC3=NN=C(C=C3C(=O)N2)Cl

> <PUBCHEM_OPENEYE_CAN_SMILES>
C1=CC=C2C(=C1)NC3=NN=C(C=C3C(=O)N2)Cl

> <PUBCHEM_OPENEYE_ISO_SMILES>
C1=CC=C2C(=C1)NC3=NN=C(C=C3C(=O)N2)Cl

> <PUBCHEM_CACTVS_TPSA>
66.9

> <PUBCHEM_MONOISOTOPIC_WEIGHT>
246.0308386

> <PUBCHEM_TOTAL_CHARGE>
0

> <PUBCHEM_HEAVY_ATOM_COUNT>
17

> <PUBCHEM_ATOM_DEF_STEREO_COUNT>
0

> <PUBCHEM_ATOM_UDEF_STEREO_COUNT>
0

> <PUBCHEM_BOND_DEF_STEREO_COUNT>
0

> <PUBCHEM_BOND_UDEF_STEREO_COUNT>
0

> <PUBCHEM_ISOTOPIC_ATOM_COUNT>
0

> <PUBCHEM_COMPONENT_COUNT>
1

> <PUBCHEM_CACTVS_TAUTO_COUNT>
-1

> <PUBCHEM_COORDINATE_TYPE>
1
5
255

> <PUBCHEM_BONDANNOTATIONS>
12  15  8
13  16  8
14  17  8
15  16  8
5  10  8
5  6  8
6  17  8
7  12  8
7  8  8
8  13  8
9  10  8
9  14  8

$$$$
