11524144
  -OEChem-03202506332D

 55 59  0     0  0  0  0  0  0999 V2000
    6.3301   -3.0782    0.0000 O   0  0  0  0  0  0  0  0  0  0  0  0
    3.7320   -2.5782    0.0000 N   0  0  0  0  0  0  0  0  0  0  0  0
   11.5263   -1.0782    0.0000 N   0  0  0  0  0  0  0  0  0  0  0  0
   10.6603    0.4219    0.0000 N   0  0  0  0  0  0  0  0  0  0  0  0
   12.4725   -1.3829    0.0000 N   0  0  0  0  0  0  0  0  0  0  0  0
   13.4045    3.0782    0.0000 N   0  0  0  0  0  0  0  0  0  0  0  0
    3.7320   -1.5782    0.0000 C   0  0  0  0  0  0  0  0  0  0  0  0
    2.8660   -3.0782    0.0000 C   0  0  0  0  0  0  0  0  0  0  0  0
    2.8660   -1.0782    0.0000 C   0  0  0  0  0  0  0  0  0  0  0  0
    2.0000   -2.5782    0.0000 C   0  0  0  0  0  0  0  0  0  0  0  0
    2.0000   -1.5782    0.0000 C   0  0  0  0  0  0  0  0  0  0  0  0
    4.5981   -3.0782    0.0000 C   0  0  0  0  0  0  0  0  0  0  0  0
    5.4641   -2.5782    0.0000 C   0  0  0  0  0  0  0  0  0  0  0  0
    7.1962   -2.5782    0.0000 C   0  0  0  0  0  0  0  0  0  0  0  0
    8.9282   -1.5782    0.0000 C   0  0  0  0  0  0  0  0  0  0  0  0
    8.0622   -3.0782    0.0000 C   0  0  0  0  0  0  0  0  0  0  0  0
    7.1962   -1.5782    0.0000 C   0  0  0  0  0  0  0  0  0  0  0  0
    9.7942   -1.0782    0.0000 C   0  0  0  0  0  0  0  0  0  0  0  0
    8.9282   -2.5782    0.0000 C   0  0  0  0  0  0  0  0  0  0  0  0
    8.0622   -1.0782    0.0000 C   0  0  0  0  0  0  0  0  0  0  0  0
   11.5263   -0.0781    0.0000 C   0  0  0  0  0  0  0  0  0  0  0  0
   12.4725    0.2266    0.0000 C   0  0  0  0  0  0  0  0  0  0  0  0
   10.6603   -1.5782    0.0000 C   0  0  0  0  0  0  0  0  0  0  0  0
    9.7942   -0.0781    0.0000 C   0  0  0  0  0  0  0  0  0  0  0  0
   12.7832    1.1771    0.0000 C   0  0  0  0  0  0  0  0  0  0  0  0
   13.0561   -0.5781    0.0000 C   0  0  0  0  0  0  0  0  0  0  0  0
   13.7617    1.3833    0.0000 C   0  0  0  0  0  0  0  0  0  0  0  0
   12.1153    1.9214    0.0000 C   0  0  0  0  0  0  0  0  0  0  0  0
   14.0723    2.3338    0.0000 C   0  0  0  0  0  0  0  0  0  0  0  0
   12.4260    2.8719    0.0000 C   0  0  0  0  0  0  0  0  0  0  0  0
    4.3426   -1.6858    0.0000 H   0  0  0  0  0  0  0  0  0  0  0  0
    3.9441   -0.9955    0.0000 H   0  0  0  0  0  0  0  0  0  0  0  0
    2.4675   -3.5531    0.0000 H   0  0  0  0  0  0  0  0  0  0  0  0
    3.2646   -3.5531    0.0000 H   0  0  0  0  0  0  0  0  0  0  0  0
    3.2646   -0.6032    0.0000 H   0  0  0  0  0  0  0  0  0  0  0  0
    2.4675   -0.6032    0.0000 H   0  0  0  0  0  0  0  0  0  0  0  0
    1.3894   -2.4705    0.0000 H   0  0  0  0  0  0  0  0  0  0  0  0
    1.7880   -3.1608    0.0000 H   0  0  0  0  0  0  0  0  0  0  0  0
    1.7880   -0.9955    0.0000 H   0  0  0  0  0  0  0  0  0  0  0  0
    1.3894   -1.6858    0.0000 H   0  0  0  0  0  0  0  0  0  0  0  0
    4.1996   -3.5531    0.0000 H   0  0  0  0  0  0  0  0  0  0  0  0
    4.9966   -3.5531    0.0000 H   0  0  0  0  0  0  0  0  0  0  0  0
    5.8626   -2.1032    0.0000 H   0  0  0  0  0  0  0  0  0  0  0  0
    5.0656   -2.1032    0.0000 H   0  0  0  0  0  0  0  0  0  0  0  0
    8.0622   -3.6982    0.0000 H   0  0  0  0  0  0  0  0  0  0  0  0
    6.6592   -1.2682    0.0000 H   0  0  0  0  0  0  0  0  0  0  0  0
    9.4651   -2.8882    0.0000 H   0  0  0  0  0  0  0  0  0  0  0  0
    8.0622   -0.4581    0.0000 H   0  0  0  0  0  0  0  0  0  0  0  0
   10.6603   -2.1982    0.0000 H   0  0  0  0  0  0  0  0  0  0  0  0
    9.2573    0.2319    0.0000 H   0  0  0  0  0  0  0  0  0  0  0  0
   13.6761   -0.5781    0.0000 H   0  0  0  0  0  0  0  0  0  0  0  0
   14.1757    0.9219    0.0000 H   0  0  0  0  0  0  0  0  0  0  0  0
   11.5086    1.7936    0.0000 H   0  0  0  0  0  0  0  0  0  0  0  0
   14.6790    2.4617    0.0000 H   0  0  0  0  0  0  0  0  0  0  0  0
   12.0119    3.3334    0.0000 H   0  0  0  0  0  0  0  0  0  0  0  0
  1 13  1  0  0  0  0
  1 14  1  0  0  0  0
  2  7  1  0  0  0  0
  2  8  1  0  0  0  0
  2 12  1  0  0  0  0
  3  5  1  0  0  0  0
  3 21  1  0  0  0  0
  3 23  1  0  0  0  0
  4 21  1  0  0  0  0
  4 24  2  0  0  0  0
  5 26  2  0  0  0  0
  6 29  2  0  0  0  0
  6 30  1  0  0  0  0
  7  9  1  0  0  0  0
  7 31  1  0  0  0  0
  7 32  1  0  0  0  0
  8 10  1  0  0  0  0
  8 33  1  0  0  0  0
  8 34  1  0  0  0  0
  9 11  1  0  0  0  0
  9 35  1  0  0  0  0
  9 36  1  0  0  0  0
 10 11  1  0  0  0  0
 10 37  1  0  0  0  0
 10 38  1  0  0  0  0
 11 39  1  0  0  0  0
 11 40  1  0  0  0  0
 12 13  1  0  0  0  0
 12 41  1  0  0  0  0
 12 42  1  0  0  0  0
 13 43  1  0  0  0  0
 13 44  1  0  0  0  0
 14 16  2  0  0  0  0
 14 17  1  0  0  0  0
 15 18  1  0  0  0  0
 15 19  2  0  0  0  0
 15 20  1  0  0  0  0
 16 19  1  0  0  0  0
 16 45  1  0  0  0  0
 17 20  2  0  0  0  0
 17 46  1  0  0  0  0
 18 23  2  0  0  0  0
 18 24  1  0  0  0  0
 19 47  1  0  0  0  0
 20 48  1  0  0  0  0
 21 22  2  0  0  0  0
 22 25  1  0  0  0  0
 22 26  1  0  0  0  0
 23 49  1  0  0  0  0
 24 50  1  0  0  0  0
 25 27  2  0  0  0  0
 25 28  1  0  0  0  0
 26 51  1  0  0  0  0
 27 29  1  0  0  0  0
 27 52  1  0  0  0  0
 28 30  2  0  0  0  0
 28 53  1  0  0  0  0
 29 54  1  0  0  0  0
 30 55  1  0  0  0  0
M  END
> <PUBCHEM_COMPOUND_CID>
11524144

> <PUBCHEM_COMPOUND_CANONICALIZED>
1

> <PUBCHEM_CACTVS_COMPLEXITY>
514

> <PUBCHEM_CACTVS_HBOND_ACCEPTOR>
5

> <PUBCHEM_CACTVS_HBOND_DONOR>
0

> <PUBCHEM_CACTVS_ROTATABLE_BOND>
6

> <PUBCHEM_CACTVS_SUBSKEYS>
AAADceB7oAAAAAAAAAAAAAAAAAAAAWAAAAA8WLEAAAAAAFgB/AAAHgAIAAAADAThmwY9tp8IFACiAjJnZACSjCsxoqAd2CA+bJiOLuLE+duHvCjsyBPY6CeQwNAOoAAAAAAAAABAAAAAAAAAAAAAAAAAAA==

> <PUBCHEM_IUPAC_OPENEYE_NAME>
6-[4-[2-(1-piperidyl)ethoxy]phenyl]-3-(4-pyridyl)pyrazolo[1,5-a]pyrimidine

> <PUBCHEM_IUPAC_CAS_NAME>
6-[4-[2-(1-piperidinyl)ethoxy]phenyl]-3-pyridin-4-ylpyrazolo[1,5-a]pyrimidine

> <PUBCHEM_IUPAC_NAME_MARKUP>
6-[4-(2-piperidin-1-ylethoxy)phenyl]-3-pyridin-4-ylpyrazolo[1,5-a]pyrimidine

> <PUBCHEM_IUPAC_NAME>
6-[4-(2-piperidin-1-ylethoxy)phenyl]-3-pyridin-4-ylpyrazolo[1,5-a]pyrimidine

> <PUBCHEM_IUPAC_SYSTEMATIC_NAME>
6-[4-(2-piperidin-1-ylethoxy)phenyl]-3-pyridin-4-yl-pyrazolo[1,5-a]pyrimidine

> <PUBCHEM_IUPAC_TRADITIONAL_NAME>
6-[4-(2-piperidinoethoxy)phenyl]-3-(4-pyridyl)pyrazolo[1,5-a]pyrimidine

> <PUBCHEM_IUPAC_INCHI>
InChI=1S/C24H25N5O/c1-2-12-28(13-3-1)14-15-30-22-6-4-19(5-7-22)21-16-26-24-23(17-27-29(24)18-21)20-8-10-25-11-9-20/h4-11,16-18H,1-3,12-15H2

> <PUBCHEM_IUPAC_INCHIKEY>
XHBVYDAKJHETMP-UHFFFAOYSA-N

> <PUBCHEM_XLOGP3_AA>
3.4

> <PUBCHEM_EXACT_MASS>
399.20591044

> <PUBCHEM_MOLECULAR_FORMULA>
C24H25N5O

> <PUBCHEM_MOLECULAR_WEIGHT>
399.5

> <PUBCHEM_SMILES>
C1CCN(CC1)CCOC2=CC=C(C=C2)C3=CN4C(=C(C=N4)C5=CC=NC=C5)N=C3

> <PUBCHEM_OPENEYE_CAN_SMILES>
C1CCN(CC1)CCOC2=CC=C(C=C2)C3=CN4C(=C(C=N4)C5=CC=NC=C5)N=C3

> <PUBCHEM_OPENEYE_ISO_SMILES>
C1CCN(CC1)CCOC2=CC=C(C=C2)C3=CN4C(=C(C=N4)C5=CC=NC=C5)N=C3

> <PUBCHEM_CACTVS_TPSA>
55.6

> <PUBCHEM_MONOISOTOPIC_WEIGHT>
399.20591044

> <PUBCHEM_TOTAL_CHARGE>
0

> <PUBCHEM_HEAVY_ATOM_COUNT>
30

> <PUBCHEM_ATOM_DEF_STEREO_COUNT>
0

> <PUBCHEM_ATOM_UDEF_STEREO_COUNT>
0

> <PUBCHEM_BOND_DEF_STEREO_COUNT>
0

> <PUBCHEM_BOND_UDEF_STEREO_COUNT>
0

> <PUBCHEM_ISOTOPIC_ATOM_COUNT>
0

> <PUBCHEM_COMPONENT_COUNT>
1

> <PUBCHEM_CACTVS_TAUTO_COUNT>
-1

> <PUBCHEM_COORDINATE_TYPE>
1
5
255

> <PUBCHEM_BONDANNOTATIONS>
14  16  8
14  17  8
15  19  8
15  20  8
16  19  8
17  20  8
18  23  8
18  24  8
21  22  8
22  26  8
25  27  8
25  28  8
27  29  8
28  30  8
3  21  8
3  23  8
3  5  8
4  21  8
4  24  8
5  26  8
6  29  8
6  30  8

$$$$
