2044508
  -OEChem-03202501492D

 36 39  0     0  0  0  0  0  0999 V2000
    2.8090   -1.5299    0.0000 S   0  0  0  0  0  0  0  0  0  0  0  0
    2.9282    3.3965    0.0000 S   0  0  0  0  0  0  0  0  0  0  0  0
    4.8781   -4.9353    0.0000 O   0  0  0  0  0  0  0  0  0  0  0  0
    3.2958   -0.1532    0.0000 O   0  0  0  0  0  0  0  0  0  0  0  0
    5.3781   -2.3965    0.0000 N   0  0  0  0  0  0  0  0  0  0  0  0
    6.1871   -1.8087    0.0000 N   0  0  0  0  0  0  0  0  0  0  0  0
    5.8781   -0.8576    0.0000 N   0  0  0  0  0  0  0  0  0  0  0  0
    4.5691   -3.9843    0.0000 N   0  0  0  0  0  0  0  0  0  0  0  0
    4.6971    0.8649    0.0000 N   0  0  0  0  0  0  0  0  0  0  0  0
    5.8781   -4.9353    0.0000 N   0  0  0  0  0  0  0  0  0  0  0  0
    7.1382   -3.6753    0.0000 N   0  0  0  0  0  0  0  0  0  0  0  0
    4.1093    1.6739    0.0000 N   0  0  0  0  0  0  0  0  0  0  0  0
    4.5691   -1.8087    0.0000 C   0  0  0  0  0  0  0  0  0  0  0  0
    3.6180   -2.1177    0.0000 C   0  0  0  0  0  0  0  0  0  0  0  0
    4.8781   -0.8576    0.0000 C   0  0  0  0  0  0  0  0  0  0  0  0
    5.3781   -3.3965    0.0000 C   0  0  0  0  0  0  0  0  0  0  0  0
    3.3090   -3.0688    0.0000 C   0  0  0  0  0  0  0  0  0  0  0  0
    4.2903   -0.0486    0.0000 C   0  0  0  0  0  0  0  0  0  0  0  0
    6.1871   -3.9843    0.0000 C   0  0  0  0  0  0  0  0  0  0  0  0
    2.3090   -3.0688    0.0000 C   0  0  0  0  0  0  0  0  0  0  0  0
    2.0000   -2.1177    0.0000 C   0  0  0  0  0  0  0  0  0  0  0  0
    3.9282    3.3965    0.0000 C   0  0  0  0  0  0  0  0  0  0  0  0
    4.5160    2.5875    0.0000 C   0  0  0  0  0  0  0  0  0  0  0  0
    4.2372    4.3476    0.0000 C   0  0  0  0  0  0  0  0  0  0  0  0
    3.4282    4.9353    0.0000 C   0  0  0  0  0  0  0  0  0  0  0  0
    2.6192    4.3476    0.0000 C   0  0  0  0  0  0  0  0  0  0  0  0
    3.6734   -3.5704    0.0000 H   0  0  0  0  0  0  0  0  0  0  0  0
    1.9446   -3.5704    0.0000 H   0  0  0  0  0  0  0  0  0  0  0  0
    1.4103   -1.9261    0.0000 H   0  0  0  0  0  0  0  0  0  0  0  0
    5.3137    0.9297    0.0000 H   0  0  0  0  0  0  0  0  0  0  0  0
    7.5989   -4.0901    0.0000 H   0  0  0  0  0  0  0  0  0  0  0  0
    7.2671   -3.0688    0.0000 H   0  0  0  0  0  0  0  0  0  0  0  0
    5.1326    2.6523    0.0000 H   0  0  0  0  0  0  0  0  0  0  0  0
    4.8269    4.5391    0.0000 H   0  0  0  0  0  0  0  0  0  0  0  0
    3.4282    5.5553    0.0000 H   0  0  0  0  0  0  0  0  0  0  0  0
    2.0296    4.5391    0.0000 H   0  0  0  0  0  0  0  0  0  0  0  0
  1 14  1  0  0  0  0
  1 21  1  0  0  0  0
  2 22  1  0  0  0  0
  2 26  1  0  0  0  0
  3  8  1  0  0  0  0
  3 10  1  0  0  0  0
  4 18  2  0  0  0  0
  5  6  1  0  0  0  0
  5 13  1  0  0  0  0
  5 16  1  0  0  0  0
  6  7  2  0  0  0  0
  7 15  1  0  0  0  0
  8 16  2  0  0  0  0
  9 12  1  0  0  0  0
  9 18  1  0  0  0  0
  9 30  1  0  0  0  0
 10 19  2  0  0  0  0
 11 19  1  0  0  0  0
 11 31  1  0  0  0  0
 11 32  1  0  0  0  0
 12 23  2  3  0  0  0
 13 14  1  0  0  0  0
 13 15  2  0  0  0  0
 14 17  2  0  0  0  0
 15 18  1  0  0  0  0
 16 19  1  0  0  0  0
 17 20  1  0  0  0  0
 17 27  1  0  0  0  0
 20 21  2  0  0  0  0
 20 28  1  0  0  0  0
 21 29  1  0  0  0  0
 22 23  1  0  0  0  0
 22 24  2  0  0  0  0
 23 33  1  0  0  0  0
 24 25  1  0  0  0  0
 24 34  1  0  0  0  0
 25 26  2  0  0  0  0
 25 35  1  0  0  0  0
 26 36  1  0  0  0  0
M  END
> <PUBCHEM_COMPOUND_CID>
2044508

> <PUBCHEM_COMPOUND_CANONICALIZED>
1

> <PUBCHEM_CACTVS_COMPLEXITY>
541

> <PUBCHEM_CACTVS_HBOND_ACCEPTOR>
10

> <PUBCHEM_CACTVS_HBOND_DONOR>
2

> <PUBCHEM_CACTVS_ROTATABLE_BOND>
5

> <PUBCHEM_CACTVS_SUBSKEYS>
AAADccBz8ABgAAAAAAAAAAAAAAAAAWLEiQAAAAAAAAAAAAAB/gAAHgQcAAAACAjF1gSxsZJ6AAivATdzdgCTBKQnGBB/mDmgVNqIYPrg2RGUIYhgiILoyWcYiACAAAAAAAAAAAAAAAAAAAAAAAAAAAAAAA==

> <PUBCHEM_IUPAC_OPENEYE_NAME>
1-(4-amino-1,2,5-oxadiazol-3-yl)-5-(2-thienyl)-N-(2-thienylmethyleneamino)triazole-4-carboxamide

> <PUBCHEM_IUPAC_CAS_NAME>
1-(4-amino-1,2,5-oxadiazol-3-yl)-5-thiophen-2-yl-N-(thiophen-2-ylmethylideneamino)-4-triazolecarboxamide

> <PUBCHEM_IUPAC_NAME_MARKUP>
1-(4-amino-1,2,5-oxadiazol-3-yl)-5-thiophen-2-yl-<I>N</I>-(thiophen-2-ylmethylideneamino)triazole-4-carboxamide

> <PUBCHEM_IUPAC_NAME>
1-(4-amino-1,2,5-oxadiazol-3-yl)-5-thiophen-2-yl-N-(thiophen-2-ylmethylideneamino)triazole-4-carboxamide

> <PUBCHEM_IUPAC_SYSTEMATIC_NAME>
1-(4-azanyl-1,2,5-oxadiazol-3-yl)-5-thiophen-2-yl-N-(thiophen-2-ylmethylideneamino)-1,2,3-triazole-4-carboxamide

> <PUBCHEM_IUPAC_TRADITIONAL_NAME>
1-(4-aminofurazan-3-yl)-N-(2-thenylideneamino)-5-(2-thienyl)triazole-4-carboxamide

> <PUBCHEM_IUPAC_INCHI>
InChI=1S/C14H10N8O2S2/c15-12-13(20-24-19-12)22-11(9-4-2-6-26-9)10(17-21-22)14(23)18-16-7-8-3-1-5-25-8/h1-7H,(H2,15,19)(H,18,23)

> <PUBCHEM_IUPAC_INCHIKEY>
DZCWNAMURCVSNJ-UHFFFAOYSA-N

> <PUBCHEM_XLOGP3_AA>
1.8

> <PUBCHEM_EXACT_MASS>
386.03681394

> <PUBCHEM_MOLECULAR_FORMULA>
C14H10N8O2S2

> <PUBCHEM_MOLECULAR_WEIGHT>
386.4

> <PUBCHEM_SMILES>
C1=CSC(=C1)C=NNC(=O)C2=C(N(N=N2)C3=NON=C3N)C4=CC=CS4

> <PUBCHEM_OPENEYE_CAN_SMILES>
C1=CSC(=C1)C=NNC(=O)C2=C(N(N=N2)C3=NON=C3N)C4=CC=CS4

> <PUBCHEM_OPENEYE_ISO_SMILES>
C1=CSC(=C1)C=NNC(=O)C2=C(N(N=N2)C3=NON=C3N)C4=CC=CS4

> <PUBCHEM_CACTVS_TPSA>
194

> <PUBCHEM_MONOISOTOPIC_WEIGHT>
386.03681394

> <PUBCHEM_TOTAL_CHARGE>
0

> <PUBCHEM_HEAVY_ATOM_COUNT>
26

> <PUBCHEM_ATOM_DEF_STEREO_COUNT>
0

> <PUBCHEM_ATOM_UDEF_STEREO_COUNT>
0

> <PUBCHEM_BOND_DEF_STEREO_COUNT>
0

> <PUBCHEM_BOND_UDEF_STEREO_COUNT>
1

> <PUBCHEM_ISOTOPIC_ATOM_COUNT>
0

> <PUBCHEM_COMPONENT_COUNT>
1

> <PUBCHEM_CACTVS_TAUTO_COUNT>
-1

> <PUBCHEM_COORDINATE_TYPE>
1
5
255

> <PUBCHEM_BONDANNOTATIONS>
1  14  8
1  21  8
10  19  8
12  23  1
13  15  8
14  17  8
16  19  8
17  20  8
2  22  8
2  26  8
20  21  8
22  24  8
24  25  8
25  26  8
3  10  8
3  8  8
5  13  8
5  6  8
6  7  8
7  15  8
8  16  8

$$$$
