44370466
  -OEChem-03202500222D

 78 84  0     1  0  0  0  0  0999 V2000
   16.5808    3.4641    0.0000 Br  0  0  0  0  0  0  0  0  0  0  0  0
    5.2927   -0.0103    0.0000 O   0  0  0  0  0  0  0  0  0  0  0  0
    5.2462   -2.6557    0.0000 O   0  0  0  0  0  0  0  0  0  0  0  0
    2.6678   -0.3422    0.0000 O   0  0  0  0  0  0  0  0  0  0  0  0
    3.2892   -2.2433    0.0000 O   0  0  0  0  0  0  0  0  0  0  0  0
    3.0250    1.3526    0.0000 O   0  0  0  0  0  0  0  0  0  0  0  0
   10.3078   -1.7552    0.0000 O   0  0  0  0  0  0  0  0  0  0  0  0
   10.3078    1.7552    0.0000 O   0  0  0  0  0  0  0  0  0  0  0  0
   14.5808    1.7320    0.0000 O   0  0  0  0  0  0  0  0  0  0  0  0
   14.5808    3.4641    0.0000 O   0  0  0  0  0  0  0  0  0  0  0  0
    6.5819   -1.1671    0.0000 N   0  0  0  0  0  0  0  0  0  0  0  0
    6.5819    1.1671    0.0000 N   0  0  0  0  0  0  0  0  0  0  0  0
   10.5808    0.0000    0.0000 N   0  0  0  0  0  0  0  0  0  0  0  0
    5.6034   -0.9609    0.0000 C   0  0  3  0  0  0  0  0  0  0  0  0
    4.9355   -1.7052    0.0000 C   0  0  3  0  0  0  0  0  0  0  0  0
    3.9570   -1.4990    0.0000 C   0  0  3  0  0  0  0  0  0  0  0  0
    7.3189   -0.5000    0.0000 C   0  0  0  0  0  0  0  0  0  0  0  0
    3.6464   -0.5484    0.0000 C   0  0  3  0  0  0  0  0  0  0  0  0
    4.3142    0.1959    0.0000 C   0  0  3  0  0  0  0  0  0  0  0  0
    8.1849   -1.0000    0.0000 C   0  0  0  0  0  0  0  0  0  0  0  0
    6.9870   -2.0749    0.0000 C   0  0  0  0  0  0  0  0  0  0  0  0
    7.3189    0.5000    0.0000 C   0  0  0  0  0  0  0  0  0  0  0  0
    7.9757   -1.9718    0.0000 C   0  0  0  0  0  0  0  0  0  0  0  0
    9.0509   -0.5000    0.0000 C   0  0  0  0  0  0  0  0  0  0  0  0
    8.1849    1.0000    0.0000 C   0  0  0  0  0  0  0  0  0  0  0  0
    9.0509    0.5000    0.0000 C   0  0  0  0  0  0  0  0  0  0  0  0
    4.0035    1.1464    0.0000 C   0  0  0  0  0  0  0  0  0  0  0  0
    7.9757    1.9718    0.0000 C   0  0  0  0  0  0  0  0  0  0  0  0
    9.9972   -0.8047    0.0000 C   0  0  0  0  0  0  0  0  0  0  0  0
    9.9972    0.8047    0.0000 C   0  0  0  0  0  0  0  0  0  0  0  0
    6.9870    2.0749    0.0000 C   0  0  0  0  0  0  0  0  0  0  0  0
    6.5505   -3.0138    0.0000 C   0  0  0  0  0  0  0  0  0  0  0  0
    8.5965   -2.8006    0.0000 C   0  0  0  0  0  0  0  0  0  0  0  0
   11.5808    0.0000    0.0000 C   0  0  0  0  0  0  0  0  0  0  0  0
    7.1519   -3.8567    0.0000 C   0  0  0  0  0  0  0  0  0  0  0  0
    8.1818   -3.7494    0.0000 C   0  0  0  0  0  0  0  0  0  0  0  0
    8.5965    2.8006    0.0000 C   0  0  0  0  0  0  0  0  0  0  0  0
    6.5505    3.0138    0.0000 C   0  0  0  0  0  0  0  0  0  0  0  0
   12.0808    0.8660    0.0000 C   0  0  0  0  0  0  0  0  0  0  0  0
    2.0000   -1.0865    0.0000 C   0  0  0  0  0  0  0  0  0  0  0  0
    8.1818    3.7494    0.0000 C   0  0  0  0  0  0  0  0  0  0  0  0
    7.1519    3.8567    0.0000 C   0  0  0  0  0  0  0  0  0  0  0  0
   13.0808    0.8660    0.0000 C   0  0  0  0  0  0  0  0  0  0  0  0
   13.5808    1.7320    0.0000 C   0  0  0  0  0  0  0  0  0  0  0  0
   15.0808    2.5981    0.0000 C   0  0  0  0  0  0  0  0  0  0  0  0
   16.0808    2.5981    0.0000 C   0  0  0  0  0  0  0  0  0  0  0  0
    6.0174   -0.4994    0.0000 H   0  0  0  0  0  0  0  0  0  0  0  0
    4.5214   -2.1666    0.0000 H   0  0  0  0  0  0  0  0  0  0  0  0
    3.3503   -1.3711    0.0000 H   0  0  0  0  0  0  0  0  0  0  0  0
    3.2323   -1.0099    0.0000 H   0  0  0  0  0  0  0  0  0  0  0  0
    4.7283    0.6573    0.0000 H   0  0  0  0  0  0  0  0  0  0  0  0
    4.6174    1.2337    0.0000 H   0  0  0  0  0  0  0  0  0  0  0  0
    4.0241    1.7660    0.0000 H   0  0  0  0  0  0  0  0  0  0  0  0
    5.9752    1.0392    0.0000 H   0  0  0  0  0  0  0  0  0  0  0  0
    5.9331   -3.0710    0.0000 H   0  0  0  0  0  0  0  0  0  0  0  0
    9.2123   -2.7292    0.0000 H   0  0  0  0  0  0  0  0  0  0  0  0
    4.8321   -3.1172    0.0000 H   0  0  0  0  0  0  0  0  0  0  0  0
    2.6825   -2.1154    0.0000 H   0  0  0  0  0  0  0  0  0  0  0  0
   11.4731   -0.6106    0.0000 H   0  0  0  0  0  0  0  0  0  0  0  0
   12.1634   -0.2121    0.0000 H   0  0  0  0  0  0  0  0  0  0  0  0
    6.8970   -4.4219    0.0000 H   0  0  0  0  0  0  0  0  0  0  0  0
    8.5477   -4.2499    0.0000 H   0  0  0  0  0  0  0  0  0  0  0  0
    9.2123    2.7292    0.0000 H   0  0  0  0  0  0  0  0  0  0  0  0
    5.9331    3.0710    0.0000 H   0  0  0  0  0  0  0  0  0  0  0  0
   12.1884    1.4766    0.0000 H   0  0  0  0  0  0  0  0  0  0  0  0
   11.4982    1.0781    0.0000 H   0  0  0  0  0  0  0  0  0  0  0  0
    1.5385   -0.6724    0.0000 H   0  0  0  0  0  0  0  0  0  0  0  0
    1.5859   -1.5480    0.0000 H   0  0  0  0  0  0  0  0  0  0  0  0
    2.4615   -1.5006    0.0000 H   0  0  0  0  0  0  0  0  0  0  0  0
    2.8324    1.9419    0.0000 H   0  0  0  0  0  0  0  0  0  0  0  0
    8.5477    4.2499    0.0000 H   0  0  0  0  0  0  0  0  0  0  0  0
    6.8970    4.4219    0.0000 H   0  0  0  0  0  0  0  0  0  0  0  0
   12.9731    0.2554    0.0000 H   0  0  0  0  0  0  0  0  0  0  0  0
   13.6634    0.6540    0.0000 H   0  0  0  0  0  0  0  0  0  0  0  0
   13.6884    2.3426    0.0000 H   0  0  0  0  0  0  0  0  0  0  0  0
   12.9982    1.9441    0.0000 H   0  0  0  0  0  0  0  0  0  0  0  0
   15.9731    1.9875    0.0000 H   0  0  0  0  0  0  0  0  0  0  0  0
   16.6634    2.3860    0.0000 H   0  0  0  0  0  0  0  0  0  0  0  0
  1 46  1  0  0  0  0
  2 14  1  0  0  0  0
  2 19  1  0  0  0  0
  3 15  1  0  0  0  0
  3 57  1  0  0  0  0
  4 18  1  0  0  0  0
  4 40  1  0  0  0  0
  5 16  1  0  0  0  0
  5 58  1  0  0  0  0
  6 27  1  0  0  0  0
  6 70  1  0  0  0  0
  7 29  2  0  0  0  0
  8 30  2  0  0  0  0
  9 44  1  0  0  0  0
  9 45  1  0  0  0  0
 10 45  2  0  0  0  0
 11 14  1  0  0  0  0
 11 17  1  0  0  0  0
 11 21  1  0  0  0  0
 12 22  1  0  0  0  0
 12 31  1  0  0  0  0
 12 54  1  0  0  0  0
 13 29  1  0  0  0  0
 13 30  1  0  0  0  0
 13 34  1  0  0  0  0
 14 15  1  0  0  0  0
 14 47  1  0  0  0  0
 15 16  1  0  0  0  0
 15 48  1  0  0  0  0
 16 18  1  0  0  0  0
 16 49  1  0  0  0  0
 17 20  1  0  0  0  0
 17 22  2  0  0  0  0
 18 19  1  0  0  0  0
 18 50  1  0  0  0  0
 19 27  1  0  0  0  0
 19 51  1  0  0  0  0
 20 23  1  0  0  0  0
 20 24  2  0  0  0  0
 21 23  1  0  0  0  0
 21 32  2  0  0  0  0
 22 25  1  0  0  0  0
 23 33  2  0  0  0  0
 24 26  1  0  0  0  0
 24 29  1  0  0  0  0
 25 26  2  0  0  0  0
 25 28  1  0  0  0  0
 26 30  1  0  0  0  0
 27 52  1  0  0  0  0
 27 53  1  0  0  0  0
 28 31  1  0  0  0  0
 28 37  2  0  0  0  0
 31 38  2  0  0  0  0
 32 35  1  0  0  0  0
 32 55  1  0  0  0  0
 33 36  1  0  0  0  0
 33 56  1  0  0  0  0
 34 39  1  0  0  0  0
 34 59  1  0  0  0  0
 34 60  1  0  0  0  0
 35 36  2  0  0  0  0
 35 61  1  0  0  0  0
 36 62  1  0  0  0  0
 37 41  1  0  0  0  0
 37 63  1  0  0  0  0
 38 42  1  0  0  0  0
 38 64  1  0  0  0  0
 39 43  1  0  0  0  0
 39 65  1  0  0  0  0
 39 66  1  0  0  0  0
 40 67  1  0  0  0  0
 40 68  1  0  0  0  0
 40 69  1  0  0  0  0
 41 42  2  0  0  0  0
 41 71  1  0  0  0  0
 42 72  1  0  0  0  0
 43 44  1  0  0  0  0
 43 73  1  0  0  0  0
 43 74  1  0  0  0  0
 44 75  1  0  0  0  0
 44 76  1  0  0  0  0
 45 46  1  0  0  0  0
 46 77  1  0  0  0  0
 46 78  1  0  0  0  0
M  END
> <PUBCHEM_COMPOUND_CID>
44370466

> <PUBCHEM_COMPOUND_CANONICALIZED>
1

> <PUBCHEM_CACTVS_COMPLEXITY>
1160

> <PUBCHEM_CACTVS_HBOND_ACCEPTOR>
9

> <PUBCHEM_CACTVS_HBOND_DONOR>
4

> <PUBCHEM_CACTVS_ROTATABLE_BOND>
10

> <PUBCHEM_CACTVS_SUBSKEYS>
AAADcfB/PAAAEAAAAAAAAAAAAAAAAWLFgAA0YMEAAAAAAFgB/gAAHgBQCAABTBzhngYyyPPNlgCoAyXyXACCgCQlEiAI2SE4dNgrcPLAlZGeYQhnliDbyQf9+caeyAACQAASACCQAASAACQAQAAAAAAAAA==

> <PUBCHEM_IUPAC_OPENEYE_NAME>
4-[3-[3,4-dihydroxy-6-(hydroxymethyl)-5-methoxy-tetrahydropyran-2-yl]-12,14-dioxo-3,13,23-triazahexacyclo[14.7.0.02,10.04,9.011,15.017,22]tricosa-1,4,6,8,10,15,17,19,21-nonaen-13-yl]butyl 2-bromoacetate

> <PUBCHEM_IUPAC_CAS_NAME>
2-bromoacetic acid 4-[3-[3,4-dihydroxy-6-(hydroxymethyl)-5-methoxy-2-oxanyl]-12,14-dioxo-3,13,23-triazahexacyclo[14.7.0.02,10.04,9.011,15.017,22]tricosa-1,4,6,8,10,15,17,19,21-nonaen-13-yl]butyl ester

> <PUBCHEM_IUPAC_NAME_MARKUP>
4-[3-[3,4-dihydroxy-6-(hydroxymethyl)-5-methoxyoxan-2-yl]-12,14-dioxo-3,13,23-triazahexacyclo[14.7.0.0<SUP>2,10</SUP>.0<SUP>4,9</SUP>.0<SUP>11,15</SUP>.0<SUP>17,22</SUP>]tricosa-1,4,6,8,10,15,17,19,21-nonaen-13-yl]butyl 2-bromoacetate

> <PUBCHEM_IUPAC_NAME>
4-[3-[3,4-dihydroxy-6-(hydroxymethyl)-5-methoxyoxan-2-yl]-12,14-dioxo-3,13,23-triazahexacyclo[14.7.0.02,10.04,9.011,15.017,22]tricosa-1,4,6,8,10,15,17,19,21-nonaen-13-yl]butyl 2-bromoacetate

> <PUBCHEM_IUPAC_SYSTEMATIC_NAME>
4-[3-[6-(hydroxymethyl)-5-methoxy-3,4-bis(oxidanyl)oxan-2-yl]-12,14-bis(oxidanylidene)-3,13,23-triazahexacyclo[14.7.0.02,10.04,9.011,15.017,22]tricosa-1,4,6,8,10,15,17,19,21-nonaen-13-yl]butyl 2-bromanylethanoate

> <PUBCHEM_IUPAC_TRADITIONAL_NAME>
2-bromoacetic acid 4-[3-(3,4-dihydroxy-5-methoxy-6-methylol-tetrahydropyran-2-yl)-12,14-diketo-3,13,23-triazahexacyclo[14.7.0.02,10.04,9.011,15.017,22]tricosa-1,4,6,8,10,15,17,19,21-nonaen-13-yl]butyl ester

> <PUBCHEM_IUPAC_INCHI>
InChI=1S/C33H32BrN3O9/c1-44-30-20(15-38)46-33(29(41)28(30)40)37-19-11-5-3-9-17(19)23-25-24(22-16-8-2-4-10-18(16)35-26(22)27(23)37)31(42)36(32(25)43)12-6-7-13-45-21(39)14-34/h2-5,8-11,20,28-30,33,35,38,40-41H,6-7,12-15H2,1H3

> <PUBCHEM_IUPAC_INCHIKEY>
BVSYWRUXRMPTKX-UHFFFAOYSA-N

> <PUBCHEM_XLOGP3_AA>
2.9

> <PUBCHEM_EXACT_MASS>
693.13219

> <PUBCHEM_MOLECULAR_FORMULA>
C33H32BrN3O9

> <PUBCHEM_MOLECULAR_WEIGHT>
694.5

> <PUBCHEM_SMILES>
COC1C(OC(C(C1O)O)N2C3=CC=CC=C3C4=C5C(=C6C7=CC=CC=C7NC6=C42)C(=O)N(C5=O)CCCCOC(=O)CBr)CO

> <PUBCHEM_OPENEYE_CAN_SMILES>
COC1C(OC(C(C1O)O)N2C3=CC=CC=C3C4=C5C(=C6C7=CC=CC=C7NC6=C42)C(=O)N(C5=O)CCCCOC(=O)CBr)CO

> <PUBCHEM_OPENEYE_ISO_SMILES>
COC1C(OC(C(C1O)O)N2C3=CC=CC=C3C4=C5C(=C6C7=CC=CC=C7NC6=C42)C(=O)N(C5=O)CCCCOC(=O)CBr)CO

> <PUBCHEM_CACTVS_TPSA>
164

> <PUBCHEM_MONOISOTOPIC_WEIGHT>
693.13219

> <PUBCHEM_TOTAL_CHARGE>
0

> <PUBCHEM_HEAVY_ATOM_COUNT>
46

> <PUBCHEM_ATOM_DEF_STEREO_COUNT>
0

> <PUBCHEM_ATOM_UDEF_STEREO_COUNT>
5

> <PUBCHEM_BOND_DEF_STEREO_COUNT>
0

> <PUBCHEM_BOND_UDEF_STEREO_COUNT>
0

> <PUBCHEM_ISOTOPIC_ATOM_COUNT>
0

> <PUBCHEM_COMPONENT_COUNT>
1

> <PUBCHEM_CACTVS_TAUTO_COUNT>
-1

> <PUBCHEM_COORDINATE_TYPE>
1
5
255

> <PUBCHEM_BONDANNOTATIONS>
14  11  3
11  17  8
11  21  8
12  22  8
12  31  8
17  20  8
17  22  8
19  27  3
20  23  8
20  24  8
21  23  8
21  32  8
22  25  8
23  33  8
24  26  8
25  26  8
25  28  8
28  31  8
28  37  8
15  3  3
31  38  8
32  35  8
33  36  8
35  36  8
37  41  8
38  42  8
18  4  3
41  42  8
16  5  3

$$$$
