136027064
  -OEChem-03202501162D

 40 43  0     0  0  0  0  0  0999 V2000
    6.4103    0.0792    0.0000 N   0  0  0  0  0  0  0  0  0  0  0  0
    6.4103   -1.5303    0.0000 N   0  0  0  0  0  0  0  0  0  0  0  0
    9.5238   -1.2255    0.0000 N   0  0  0  0  0  0  0  0  0  0  0  0
    8.5775   -1.5303    0.0000 N   0  0  0  0  0  0  0  0  0  0  0  0
    2.8660    0.2745    0.0000 C   0  0  0  0  0  0  0  0  0  0  0  0
    3.7320   -0.2255    0.0000 C   0  0  0  0  0  0  0  0  0  0  0  0
    2.0000    0.7745    0.0000 C   0  0  0  0  0  0  0  0  0  0  0  0
    2.3660   -0.5916    0.0000 C   0  0  0  0  0  0  0  0  0  0  0  0
    3.3660    1.1405    0.0000 C   0  0  0  0  0  0  0  0  0  0  0  0
    4.5981    0.2745    0.0000 C   0  0  0  0  0  0  0  0  0  0  0  0
    5.4641   -0.2255    0.0000 C   0  0  0  0  0  0  0  0  0  0  0  0
    3.7320   -1.2255    0.0000 C   0  0  0  0  0  0  0  0  0  0  0  0
    5.4641   -1.2255    0.0000 C   0  0  0  0  0  0  0  0  0  0  0  0
    4.5981   -1.7255    0.0000 C   0  0  0  0  0  0  0  0  0  0  0  0
    6.9939   -0.7255    0.0000 C   0  0  0  0  0  0  0  0  0  0  0  0
    7.9939   -0.7255    0.0000 C   0  0  0  0  0  0  0  0  0  0  0  0
    8.5775    0.0792    0.0000 C   0  0  0  0  0  0  0  0  0  0  0  0
    9.5281   -0.2315    0.0000 C   0  0  0  0  0  0  0  0  0  0  0  0
    8.3713    1.0577    0.0000 C   0  0  0  0  0  0  0  0  0  0  0  0
   10.2724    0.4364    0.0000 C   0  0  0  0  0  0  0  0  0  0  0  0
    9.1156    1.7255    0.0000 C   0  0  0  0  0  0  0  0  0  0  0  0
   10.0661    1.4149    0.0000 C   0  0  0  0  0  0  0  0  0  0  0  0
    2.3100    1.3114    0.0000 H   0  0  0  0  0  0  0  0  0  0  0  0
    1.4631    1.0845    0.0000 H   0  0  0  0  0  0  0  0  0  0  0  0
    1.6900    0.2375    0.0000 H   0  0  0  0  0  0  0  0  0  0  0  0
    1.8291   -0.2816    0.0000 H   0  0  0  0  0  0  0  0  0  0  0  0
    2.0560   -1.1285    0.0000 H   0  0  0  0  0  0  0  0  0  0  0  0
    2.9030   -0.9016    0.0000 H   0  0  0  0  0  0  0  0  0  0  0  0
    3.9030    0.8305    0.0000 H   0  0  0  0  0  0  0  0  0  0  0  0
    3.6760    1.6774    0.0000 H   0  0  0  0  0  0  0  0  0  0  0  0
    2.8291    1.4505    0.0000 H   0  0  0  0  0  0  0  0  0  0  0  0
    4.5981    0.8945    0.0000 H   0  0  0  0  0  0  0  0  0  0  0  0
    3.1951   -1.5355    0.0000 H   0  0  0  0  0  0  0  0  0  0  0  0
    4.5981   -2.3455    0.0000 H   0  0  0  0  0  0  0  0  0  0  0  0
    6.6029    0.6685    0.0000 H   0  0  0  0  0  0  0  0  0  0  0  0
   10.0241   -1.5917    0.0000 H   0  0  0  0  0  0  0  0  0  0  0  0
    7.7820    1.2503    0.0000 H   0  0  0  0  0  0  0  0  0  0  0  0
   10.8617    0.2438    0.0000 H   0  0  0  0  0  0  0  0  0  0  0  0
    8.9878    2.3322    0.0000 H   0  0  0  0  0  0  0  0  0  0  0  0
   10.5276    1.8289    0.0000 H   0  0  0  0  0  0  0  0  0  0  0  0
  1 11  1  0  0  0  0
  1 15  1  0  0  0  0
  1 35  1  0  0  0  0
  2 13  1  0  0  0  0
  2 15  2  0  0  0  0
  3  4  1  0  0  0  0
  3 18  1  0  0  0  0
  3 36  1  0  0  0  0
  4 16  2  0  0  0  0
  5  6  1  0  0  0  0
  5  7  1  0  0  0  0
  5  8  1  0  0  0  0
  5  9  1  0  0  0  0
  6 10  2  0  0  0  0
  6 12  1  0  0  0  0
  7 23  1  0  0  0  0
  7 24  1  0  0  0  0
  7 25  1  0  0  0  0
  8 26  1  0  0  0  0
  8 27  1  0  0  0  0
  8 28  1  0  0  0  0
  9 29  1  0  0  0  0
  9 30  1  0  0  0  0
  9 31  1  0  0  0  0
 10 11  1  0  0  0  0
 10 32  1  0  0  0  0
 11 13  2  0  0  0  0
 12 14  2  0  0  0  0
 12 33  1  0  0  0  0
 13 14  1  0  0  0  0
 14 34  1  0  0  0  0
 15 16  1  0  0  0  0
 16 17  1  0  0  0  0
 17 18  1  0  0  0  0
 17 19  2  0  0  0  0
 18 20  2  0  0  0  0
 19 21  1  0  0  0  0
 19 37  1  0  0  0  0
 20 22  1  0  0  0  0
 20 38  1  0  0  0  0
 21 22  2  0  0  0  0
 21 39  1  0  0  0  0
 22 40  1  0  0  0  0
M  END
> <PUBCHEM_COMPOUND_CID>
136027064

> <PUBCHEM_COMPOUND_CANONICALIZED>
1

> <PUBCHEM_CACTVS_COMPLEXITY>
404

> <PUBCHEM_CACTVS_HBOND_ACCEPTOR>
2

> <PUBCHEM_CACTVS_HBOND_DONOR>
2

> <PUBCHEM_CACTVS_ROTATABLE_BOND>
2

> <PUBCHEM_CACTVS_SUBSKEYS>
AAADceB7gAAAAAAAAAAAAAAAAAAAAWLAAAAwYAAAAAAAAFgB/gAAHAAYAAAADgiBHwAz0PbrkACiAyZiZACShC2hEqAZuSAwdJiIaKLA2dGUpAhomALIyCcQgMAPiAAAQAACACAQAACAAAQAQAAAAAAAAA==

> <PUBCHEM_IUPAC_OPENEYE_NAME>
6-tert-butyl-2-(1H-indazol-3-yl)-1H-benzimidazole

> <PUBCHEM_IUPAC_CAS_NAME>
6-tert-butyl-2-(1H-indazol-3-yl)-1H-benzimidazole

> <PUBCHEM_IUPAC_NAME_MARKUP>
6-<I>tert</I>-butyl-2-(1<I>H</I>-indazol-3-yl)-1<I>H</I>-benzimidazole

> <PUBCHEM_IUPAC_NAME>
6-tert-butyl-2-(1H-indazol-3-yl)-1H-benzimidazole

> <PUBCHEM_IUPAC_SYSTEMATIC_NAME>
6-tert-butyl-2-(1H-indazol-3-yl)-1H-benzimidazole

> <PUBCHEM_IUPAC_TRADITIONAL_NAME>
6-tert-butyl-2-(1H-indazol-3-yl)-1H-benzimidazole

> <PUBCHEM_IUPAC_INCHI>
InChI=1S/C18H18N4/c1-18(2,3)11-8-9-14-15(10-11)20-17(19-14)16-12-6-4-5-7-13(12)21-22-16/h4-10H,1-3H3,(H,19,20)(H,21,22)

> <PUBCHEM_IUPAC_INCHIKEY>
HEUSUIRCBWROMH-UHFFFAOYSA-N

> <PUBCHEM_XLOGP3_AA>
4.5

> <PUBCHEM_EXACT_MASS>
290.153146591

> <PUBCHEM_MOLECULAR_FORMULA>
C18H18N4

> <PUBCHEM_MOLECULAR_WEIGHT>
290.4

> <PUBCHEM_SMILES>
CC(C)(C)C1=CC2=C(C=C1)N=C(N2)C3=NNC4=CC=CC=C43

> <PUBCHEM_OPENEYE_CAN_SMILES>
CC(C)(C)C1=CC2=C(C=C1)N=C(N2)C3=NNC4=CC=CC=C43

> <PUBCHEM_OPENEYE_ISO_SMILES>
CC(C)(C)C1=CC2=C(C=C1)N=C(N2)C3=NNC4=CC=CC=C43

> <PUBCHEM_CACTVS_TPSA>
57.4

> <PUBCHEM_MONOISOTOPIC_WEIGHT>
290.153146591

> <PUBCHEM_TOTAL_CHARGE>
0

> <PUBCHEM_HEAVY_ATOM_COUNT>
22

> <PUBCHEM_ATOM_DEF_STEREO_COUNT>
0

> <PUBCHEM_ATOM_UDEF_STEREO_COUNT>
0

> <PUBCHEM_BOND_DEF_STEREO_COUNT>
0

> <PUBCHEM_BOND_UDEF_STEREO_COUNT>
0

> <PUBCHEM_ISOTOPIC_ATOM_COUNT>
0

> <PUBCHEM_COMPONENT_COUNT>
1

> <PUBCHEM_CACTVS_TAUTO_COUNT>
-1

> <PUBCHEM_COORDINATE_TYPE>
1
5
255

> <PUBCHEM_BONDANNOTATIONS>
1  11  8
1  15  8
10  11  8
11  13  8
12  14  8
13  14  8
16  17  8
17  18  8
17  19  8
18  20  8
19  21  8
2  13  8
2  15  8
20  22  8
21  22  8
3  18  8
3  4  8
4  16  8
6  10  8
6  12  8

$$$$
