44410959
  -OEChem-03202505542D

 54 57  0     1  0  0  0  0  0999 V2000
   13.2157   -1.0474    0.0000 Cl  0  0  0  0  0  0  0  0  0  0  0  0
   11.4953   -0.0274    0.0000 F   0  0  0  0  0  0  0  0  0  0  0  0
    3.1249   -2.1448    0.0000 O   0  0  0  0  0  0  0  0  0  0  0  0
    6.2713    2.0272    0.0000 O   0  0  0  0  0  0  0  0  0  0  0  0
    5.4053    0.5272    0.0000 N   0  0  3  0  0  0  0  0  0  0  0  0
    2.5896   -0.4975    0.0000 N   0  0  0  0  0  0  0  0  0  0  0  0
    9.7634    2.0619    0.0000 N   0  0  0  0  0  0  0  0  0  0  0  0
    9.7518   -1.0074    0.0000 N   0  0  0  0  0  0  0  0  0  0  0  0
   10.6694    0.5064    0.0000 N   0  0  0  0  0  0  0  0  0  0  0  0
    4.4918    0.1205    0.0000 C   0  0  1  0  0  0  0  0  0  0  0  0
    3.8226    0.8637    0.0000 C   0  0  0  0  0  0  0  0  0  0  0  0
    4.3226    1.7297    0.0000 C   0  0  0  0  0  0  0  0  0  0  0  0
    5.3008    1.5218    0.0000 C   0  0  0  0  0  0  0  0  0  0  0  0
    4.2839   -0.8576    0.0000 C   0  0  0  0  0  0  0  0  0  0  0  0
    6.2713    0.0272    0.0000 C   0  0  0  0  0  0  0  0  0  0  0  0
    7.1374    0.5272    0.0000 C   0  0  0  0  0  0  0  0  0  0  0  0
    3.3328   -1.1667    0.0000 C   0  0  0  0  0  0  0  0  0  0  0  0
    7.1374    1.5272    0.0000 C   0  0  0  0  0  0  0  0  0  0  0  0
    8.0034    0.0272    0.0000 C   0  0  0  0  0  0  0  0  0  0  0  0
    8.8694    0.5272    0.0000 C   0  0  0  0  0  0  0  0  0  0  0  0
    8.0034    2.0272    0.0000 C   0  0  0  0  0  0  0  0  0  0  0  0
    8.8694    1.5272    0.0000 C   0  0  0  0  0  0  0  0  0  0  0  0
    9.7634   -0.0074    0.0000 C   0  0  0  0  0  0  0  0  0  0  0  0
    6.2713    3.0272    0.0000 C   0  0  0  0  0  0  0  0  0  0  0  0
   10.6694    1.5481    0.0000 C   0  0  0  0  0  0  0  0  0  0  0  0
   10.6120   -1.5173    0.0000 C   0  0  0  0  0  0  0  0  0  0  0  0
   11.4837   -1.0274    0.0000 C   0  0  0  0  0  0  0  0  0  0  0  0
   10.6004   -2.5173    0.0000 C   0  0  0  0  0  0  0  0  0  0  0  0
   12.3439   -1.5374    0.0000 C   0  0  0  0  0  0  0  0  0  0  0  0
   11.4606   -3.0272    0.0000 C   0  0  0  0  0  0  0  0  0  0  0  0
   12.3324   -2.5373    0.0000 C   0  0  0  0  0  0  0  0  0  0  0  0
    4.9736   -0.2697    0.0000 H   0  0  0  0  0  0  0  0  0  0  0  0
    3.3210    1.2281    0.0000 H   0  0  0  0  0  0  0  0  0  0  0  0
    3.4078    0.4029    0.0000 H   0  0  0  0  0  0  0  0  0  0  0  0
    4.5142    2.3193    0.0000 H   0  0  0  0  0  0  0  0  0  0  0  0
    3.7562    1.9818    0.0000 H   0  0  0  0  0  0  0  0  0  0  0  0
    5.9208    1.5218    0.0000 H   0  0  0  0  0  0  0  0  0  0  0  0
    5.3656    2.1384    0.0000 H   0  0  0  0  0  0  0  0  0  0  0  0
    4.3701   -1.4716    0.0000 H   0  0  0  0  0  0  0  0  0  0  0  0
    4.9035   -0.8793    0.0000 H   0  0  0  0  0  0  0  0  0  0  0  0
    5.8728   -0.4477    0.0000 H   0  0  0  0  0  0  0  0  0  0  0  0
    6.6699   -0.4477    0.0000 H   0  0  0  0  0  0  0  0  0  0  0  0
    8.0034   -0.5928    0.0000 H   0  0  0  0  0  0  0  0  0  0  0  0
    8.0034    2.6472    0.0000 H   0  0  0  0  0  0  0  0  0  0  0  0
    2.0000   -0.6891    0.0000 H   0  0  0  0  0  0  0  0  0  0  0  0
    2.7186    0.1089    0.0000 H   0  0  0  0  0  0  0  0  0  0  0  0
    9.2113   -1.3111    0.0000 H   0  0  0  0  0  0  0  0  0  0  0  0
    6.8913    3.0272    0.0000 H   0  0  0  0  0  0  0  0  0  0  0  0
    6.2713    3.6472    0.0000 H   0  0  0  0  0  0  0  0  0  0  0  0
    5.6513    3.0272    0.0000 H   0  0  0  0  0  0  0  0  0  0  0  0
   11.2052    1.8601    0.0000 H   0  0  0  0  0  0  0  0  0  0  0  0
   10.0599   -2.8210    0.0000 H   0  0  0  0  0  0  0  0  0  0  0  0
   11.4534   -3.6472    0.0000 H   0  0  0  0  0  0  0  0  0  0  0  0
   12.8657   -2.8535    0.0000 H   0  0  0  0  0  0  0  0  0  0  0  0
  1 29  1  0  0  0  0
  2 27  1  0  0  0  0
  3 17  2  0  0  0  0
  4 18  1  0  0  0  0
  4 24  1  0  0  0  0
  5 10  1  0  0  0  0
  5 13  1  0  0  0  0
  5 15  1  0  0  0  0
  6 17  1  0  0  0  0
  6 45  1  0  0  0  0
  6 46  1  0  0  0  0
  7 22  1  0  0  0  0
  7 25  2  0  0  0  0
  8 23  1  0  0  0  0
  8 26  1  0  0  0  0
  8 47  1  0  0  0  0
  9 23  2  0  0  0  0
  9 25  1  0  0  0  0
 10 11  1  0  0  0  0
 10 14  1  6  0  0  0
 10 32  1  0  0  0  0
 11 12  1  0  0  0  0
 11 33  1  0  0  0  0
 11 34  1  0  0  0  0
 12 13  1  0  0  0  0
 12 35  1  0  0  0  0
 12 36  1  0  0  0  0
 13 37  1  0  0  0  0
 13 38  1  0  0  0  0
 14 17  1  0  0  0  0
 14 39  1  0  0  0  0
 14 40  1  0  0  0  0
 15 16  1  0  0  0  0
 15 41  1  0  0  0  0
 15 42  1  0  0  0  0
 16 18  1  0  0  0  0
 16 19  2  0  0  0  0
 18 21  2  0  0  0  0
 19 20  1  0  0  0  0
 19 43  1  0  0  0  0
 20 22  2  0  0  0  0
 20 23  1  0  0  0  0
 21 22  1  0  0  0  0
 21 44  1  0  0  0  0
 24 48  1  0  0  0  0
 24 49  1  0  0  0  0
 24 50  1  0  0  0  0
 25 51  1  0  0  0  0
 26 27  2  0  0  0  0
 26 28  1  0  0  0  0
 27 29  1  0  0  0  0
 28 30  2  0  0  0  0
 28 52  1  0  0  0  0
 29 31  2  0  0  0  0
 30 31  1  0  0  0  0
 30 53  1  0  0  0  0
 31 54  1  0  0  0  0
M  END
> <PUBCHEM_COMPOUND_CID>
44410959

> <PUBCHEM_COMPOUND_CANONICALIZED>
1

> <PUBCHEM_CACTVS_COMPLEXITY>
616

> <PUBCHEM_CACTVS_HBOND_ACCEPTOR>
7

> <PUBCHEM_CACTVS_HBOND_DONOR>
2

> <PUBCHEM_CACTVS_ROTATABLE_BOND>
7

> <PUBCHEM_CACTVS_SUBSKEYS>
AAADceB7sQAEAAAAAAAAAAAAAAAAAWAAAAA8YIAAAAAAAACx9AAAHwIQAAAADC7Bni439vfIFACoAydzdACCiCkxJ6AJ2CE+bpiMLvrF+9uENChu0BvI6CeY2GMOKAACAgIKAABQAAQEBBQAAAAAAAAAAA==

> <PUBCHEM_IUPAC_OPENEYE_NAME>
2-[(2S)-1-[[4-(3-chloro-2-fluoro-anilino)-7-methoxy-quinazolin-6-yl]methyl]pyrrolidin-2-yl]acetamide

> <PUBCHEM_IUPAC_CAS_NAME>
2-[(2S)-1-[[4-(3-chloro-2-fluoroanilino)-7-methoxy-6-quinazolinyl]methyl]-2-pyrrolidinyl]acetamide

> <PUBCHEM_IUPAC_NAME_MARKUP>
2-[(2<I>S</I>)-1-[[4-(3-chloro-2-fluoroanilino)-7-methoxyquinazolin-6-yl]methyl]pyrrolidin-2-yl]acetamide

> <PUBCHEM_IUPAC_NAME>
2-[(2S)-1-[[4-(3-chloro-2-fluoroanilino)-7-methoxyquinazolin-6-yl]methyl]pyrrolidin-2-yl]acetamide

> <PUBCHEM_IUPAC_SYSTEMATIC_NAME>
2-[(2S)-1-[[4-[(3-chloranyl-2-fluoranyl-phenyl)amino]-7-methoxy-quinazolin-6-yl]methyl]pyrrolidin-2-yl]ethanamide

> <PUBCHEM_IUPAC_TRADITIONAL_NAME>
2-[(2S)-1-[[4-(3-chloro-2-fluoro-anilino)-7-methoxy-quinazolin-6-yl]methyl]pyrrolidin-2-yl]acetamide

> <PUBCHEM_IUPAC_INCHI>
InChI=1S/C22H23ClFN5O2/c1-31-19-10-18-15(8-13(19)11-29-7-3-4-14(29)9-20(25)30)22(27-12-26-18)28-17-6-2-5-16(23)21(17)24/h2,5-6,8,10,12,14H,3-4,7,9,11H2,1H3,(H2,25,30)(H,26,27,28)/t14-/m0/s1

> <PUBCHEM_IUPAC_INCHIKEY>
CFQAZHZKWMMXOV-AWEZNQCLSA-N

> <PUBCHEM_XLOGP3_AA>
3.4

> <PUBCHEM_EXACT_MASS>
443.1524308

> <PUBCHEM_MOLECULAR_FORMULA>
C22H23ClFN5O2

> <PUBCHEM_MOLECULAR_WEIGHT>
443.9

> <PUBCHEM_SMILES>
COC1=CC2=C(C=C1CN3CCC[C@H]3CC(=O)N)C(=NC=N2)NC4=C(C(=CC=C4)Cl)F

> <PUBCHEM_OPENEYE_CAN_SMILES>
COC1=CC2=C(C=C1CN3CCCC3CC(=O)N)C(=NC=N2)NC4=C(C(=CC=C4)Cl)F

> <PUBCHEM_OPENEYE_ISO_SMILES>
COC1=CC2=C(C=C1CN3CCC[C@H]3CC(=O)N)C(=NC=N2)NC4=C(C(=CC=C4)Cl)F

> <PUBCHEM_CACTVS_TPSA>
93.4

> <PUBCHEM_MONOISOTOPIC_WEIGHT>
443.1524308

> <PUBCHEM_TOTAL_CHARGE>
0

> <PUBCHEM_HEAVY_ATOM_COUNT>
31

> <PUBCHEM_ATOM_DEF_STEREO_COUNT>
1

> <PUBCHEM_ATOM_UDEF_STEREO_COUNT>
0

> <PUBCHEM_BOND_DEF_STEREO_COUNT>
0

> <PUBCHEM_BOND_UDEF_STEREO_COUNT>
0

> <PUBCHEM_ISOTOPIC_ATOM_COUNT>
0

> <PUBCHEM_COMPONENT_COUNT>
1

> <PUBCHEM_CACTVS_TAUTO_COUNT>
-1

> <PUBCHEM_COORDINATE_TYPE>
1
5
255

> <PUBCHEM_BONDANNOTATIONS>
10  14  6
16  18  8
16  19  8
18  21  8
19  20  8
20  22  8
20  23  8
21  22  8
26  27  8
26  28  8
27  29  8
28  30  8
29  31  8
30  31  8
7  22  8
7  25  8
9  23  8
9  25  8

$$$$
