25211064
  -OEChem-03202506412D

 71 75  0     0  0  0  0  0  0999 V2000
   15.9185    0.0043    0.0000 Cl  0  0  0  0  0  0  0  0  0  0  0  0
   15.9185    2.0043    0.0000 S   0  0  0  0  0  0  0  0  0  0  0  0
    5.4602   -3.0332    0.0000 N   0  0  0  0  0  0  0  0  0  0  0  0
    3.7320   -4.0398    0.0000 N   0  0  0  0  0  0  0  0  0  0  0  0
   12.4544    0.0043    0.0000 N   0  0  0  0  0  0  0  0  0  0  0  0
   12.4544   -2.9957    0.0000 N   0  0  0  0  0  0  0  0  0  0  0  0
   15.1095    3.5921    0.0000 N   0  0  0  0  0  0  0  0  0  0  0  0
   16.7275    3.5921    0.0000 N   0  0  0  0  0  0  0  0  0  0  0  0
   15.0525   -0.4957    0.0000 N   0  0  0  0  0  0  0  0  0  0  0  0
    4.5923   -2.5365    0.0000 C   0  0  0  0  0  0  0  0  0  0  0  0
    5.4641   -4.0332    0.0000 C   0  0  0  0  0  0  0  0  0  0  0  0
    3.7282   -3.0398    0.0000 C   0  0  0  0  0  0  0  0  0  0  0  0
    4.6000   -4.5365    0.0000 C   0  0  0  0  0  0  0  0  0  0  0  0
    6.3243   -2.5298    0.0000 C   0  0  0  0  0  0  0  0  0  0  0  0
    2.8680   -4.5432    0.0000 C   0  0  0  0  0  0  0  0  0  0  0  0
    7.1923   -3.0265    0.0000 C   0  0  0  0  0  0  0  0  0  0  0  0
    2.0000   -4.0465    0.0000 C   0  0  0  0  0  0  0  0  0  0  0  0
    8.0564   -2.5232    0.0000 C   0  0  0  0  0  0  0  0  0  0  0  0
    8.9243   -3.0198    0.0000 C   0  0  0  0  0  0  0  0  0  0  0  0
    9.7884   -2.5165    0.0000 C   0  0  0  0  0  0  0  0  0  0  0  0
   10.6945   -3.0303    0.0000 C   0  0  0  0  0  0  0  0  0  0  0  0
    9.7884   -1.4748    0.0000 C   0  0  0  0  0  0  0  0  0  0  0  0
   11.5884   -1.4957    0.0000 C   0  0  0  0  0  0  0  0  0  0  0  0
   11.5884   -2.4957    0.0000 C   0  0  0  0  0  0  0  0  0  0  0  0
   10.6945   -0.9610    0.0000 C   0  0  0  0  0  0  0  0  0  0  0  0
   12.4544   -0.9957    0.0000 C   0  0  0  0  0  0  0  0  0  0  0  0
   13.3204   -1.4957    0.0000 C   0  0  0  0  0  0  0  0  0  0  0  0
   13.3204   -2.4957    0.0000 C   0  0  0  0  0  0  0  0  0  0  0  0
   13.3204    0.5043    0.0000 C   0  0  0  0  0  0  0  0  0  0  0  0
   14.1865    0.0043    0.0000 C   0  0  0  0  0  0  0  0  0  0  0  0
   13.3204    1.5043    0.0000 C   0  0  0  0  0  0  0  0  0  0  0  0
   15.0525    1.5043    0.0000 C   0  0  0  0  0  0  0  0  0  0  0  0
   15.0525    0.5043    0.0000 C   0  0  0  0  0  0  0  0  0  0  0  0
   14.1865    2.0043    0.0000 C   0  0  0  0  0  0  0  0  0  0  0  0
   14.1865   -0.9957    0.0000 C   0  0  0  0  0  0  0  0  0  0  0  0
   15.9185    3.0043    0.0000 C   0  0  0  0  0  0  0  0  0  0  0  0
   15.4185    4.5432    0.0000 C   0  0  0  0  0  0  0  0  0  0  0  0
   14.1585    3.2831    0.0000 C   0  0  0  0  0  0  0  0  0  0  0  0
   16.4185    4.5432    0.0000 C   0  0  0  0  0  0  0  0  0  0  0  0
    4.9890   -2.0600    0.0000 H   0  0  0  0  0  0  0  0  0  0  0  0
    4.1919   -2.0631    0.0000 H   0  0  0  0  0  0  0  0  0  0  0  0
    5.6784   -4.6150    0.0000 H   0  0  0  0  0  0  0  0  0  0  0  0
    6.0742   -3.9232    0.0000 H   0  0  0  0  0  0  0  0  0  0  0  0
    3.5139   -2.4581    0.0000 H   0  0  0  0  0  0  0  0  0  0  0  0
    3.1180   -3.1499    0.0000 H   0  0  0  0  0  0  0  0  0  0  0  0
    4.2033   -5.0130    0.0000 H   0  0  0  0  0  0  0  0  0  0  0  0
    5.0003   -5.0099    0.0000 H   0  0  0  0  0  0  0  0  0  0  0  0
    6.7210   -2.0534    0.0000 H   0  0  0  0  0  0  0  0  0  0  0  0
    5.9240   -2.0564    0.0000 H   0  0  0  0  0  0  0  0  0  0  0  0
    2.4712   -5.0197    0.0000 H   0  0  0  0  0  0  0  0  0  0  0  0
    3.2683   -5.0166    0.0000 H   0  0  0  0  0  0  0  0  0  0  0  0
    6.7956   -3.5030    0.0000 H   0  0  0  0  0  0  0  0  0  0  0  0
    7.5926   -3.4999    0.0000 H   0  0  0  0  0  0  0  0  0  0  0  0
    2.3079   -3.5084    0.0000 H   0  0  0  0  0  0  0  0  0  0  0  0
    1.4619   -3.7386    0.0000 H   0  0  0  0  0  0  0  0  0  0  0  0
    1.6921   -4.5846    0.0000 H   0  0  0  0  0  0  0  0  0  0  0  0
    8.0540   -1.9032    0.0000 H   0  0  0  0  0  0  0  0  0  0  0  0
    8.9267   -3.6398    0.0000 H   0  0  0  0  0  0  0  0  0  0  0  0
   10.7016   -3.6503    0.0000 H   0  0  0  0  0  0  0  0  0  0  0  0
    9.2526   -1.1628    0.0000 H   0  0  0  0  0  0  0  0  0  0  0  0
   10.7016   -0.3410    0.0000 H   0  0  0  0  0  0  0  0  0  0  0  0
   11.9175    0.3143    0.0000 H   0  0  0  0  0  0  0  0  0  0  0  0
   13.8574   -2.8057    0.0000 H   0  0  0  0  0  0  0  0  0  0  0  0
   14.1865   -0.6157    0.0000 H   0  0  0  0  0  0  0  0  0  0  0  0
   12.7835    1.8143    0.0000 H   0  0  0  0  0  0  0  0  0  0  0  0
   14.1865    2.6243    0.0000 H   0  0  0  0  0  0  0  0  0  0  0  0
   15.0541    5.0448    0.0000 H   0  0  0  0  0  0  0  0  0  0  0  0
   13.9669    3.8728    0.0000 H   0  0  0  0  0  0  0  0  0  0  0  0
   13.5688    3.0915    0.0000 H   0  0  0  0  0  0  0  0  0  0  0  0
   14.3500    2.6934    0.0000 H   0  0  0  0  0  0  0  0  0  0  0  0
   16.7830    5.0448    0.0000 H   0  0  0  0  0  0  0  0  0  0  0  0
  1 33  1  0  0  0  0
  2 32  1  0  0  0  0
  2 36  1  0  0  0  0
  3 10  1  0  0  0  0
  3 11  1  0  0  0  0
  3 14  1  0  0  0  0
  4 12  1  0  0  0  0
  4 13  1  0  0  0  0
  4 15  1  0  0  0  0
  5 26  1  0  0  0  0
  5 29  1  0  0  0  0
  5 62  1  0  0  0  0
  6 24  2  0  0  0  0
  6 28  1  0  0  0  0
  7 36  1  0  0  0  0
  7 37  1  0  0  0  0
  7 38  1  0  0  0  0
  8 36  2  0  0  0  0
  8 39  1  0  0  0  0
  9 35  3  0  0  0  0
 10 12  1  0  0  0  0
 10 40  1  0  0  0  0
 10 41  1  0  0  0  0
 11 13  1  0  0  0  0
 11 42  1  0  0  0  0
 11 43  1  0  0  0  0
 12 44  1  0  0  0  0
 12 45  1  0  0  0  0
 13 46  1  0  0  0  0
 13 47  1  0  0  0  0
 14 16  1  0  0  0  0
 14 48  1  0  0  0  0
 14 49  1  0  0  0  0
 15 17  1  0  0  0  0
 15 50  1  0  0  0  0
 15 51  1  0  0  0  0
 16 18  1  0  0  0  0
 16 52  1  0  0  0  0
 16 53  1  0  0  0  0
 17 54  1  0  0  0  0
 17 55  1  0  0  0  0
 17 56  1  0  0  0  0
 18 19  2  0  0  0  0
 18 57  1  0  0  0  0
 19 20  1  0  0  0  0
 19 58  1  0  0  0  0
 20 21  2  0  0  0  0
 20 22  1  0  0  0  0
 21 24  1  0  0  0  0
 21 59  1  0  0  0  0
 22 25  2  0  0  0  0
 22 60  1  0  0  0  0
 23 24  1  0  0  0  0
 23 25  1  0  0  0  0
 23 26  2  0  0  0  0
 25 61  1  0  0  0  0
 26 27  1  0  0  0  0
 27 28  2  0  0  0  0
 27 35  1  0  0  0  0
 28 63  1  0  0  0  0
 29 30  2  0  0  0  0
 29 31  1  0  0  0  0
 30 33  1  0  0  0  0
 30 64  1  0  0  0  0
 31 34  2  0  0  0  0
 31 65  1  0  0  0  0
 32 33  2  0  0  0  0
 32 34  1  0  0  0  0
 34 66  1  0  0  0  0
 37 39  2  0  0  0  0
 37 67  1  0  0  0  0
 38 68  1  0  0  0  0
 38 69  1  0  0  0  0
 38 70  1  0  0  0  0
 39 71  1  0  0  0  0
M  END
> <PUBCHEM_COMPOUND_CID>
25211064

> <PUBCHEM_COMPOUND_CANONICALIZED>
1

> <PUBCHEM_CACTVS_COMPLEXITY>
842

> <PUBCHEM_CACTVS_HBOND_ACCEPTOR>
7

> <PUBCHEM_CACTVS_HBOND_DONOR>
1

> <PUBCHEM_CACTVS_ROTATABLE_BOND>
9

> <PUBCHEM_CACTVS_SUBSKEYS>
AAADcfB7gABEAAAAAAAAAAAAAAAAAWAAAAA8eIEAAAAAAACx/AAAHAYQAAAADArBXiQ/0ffMEAiwBzRnZACi0C1xH7AJ2Dg4dpiI6OLh29GUJAhokALIyC8QgMAOQAQAQAICAICACACABAQBAAAAAAAAAA==

> <PUBCHEM_IUPAC_OPENEYE_NAME>
4-[3-chloro-4-(1-methylimidazol-2-yl)sulfanyl-anilino]-7-[(E)-4-(4-ethylpiperazin-1-yl)but-1-enyl]quinoline-3-carbonitrile

> <PUBCHEM_IUPAC_CAS_NAME>
4-[3-chloro-4-[(1-methyl-2-imidazolyl)thio]anilino]-7-[(E)-4-(4-ethyl-1-piperazinyl)but-1-enyl]-3-quinolinecarbonitrile

> <PUBCHEM_IUPAC_NAME_MARKUP>
4-[3-chloro-4-(1-methylimidazol-2-yl)sulfanylanilino]-7-[(<I>E</I>)-4-(4-ethylpiperazin-1-yl)but-1-enyl]quinoline-3-carbonitrile

> <PUBCHEM_IUPAC_NAME>
4-[3-chloro-4-(1-methylimidazol-2-yl)sulfanylanilino]-7-[(E)-4-(4-ethylpiperazin-1-yl)but-1-enyl]quinoline-3-carbonitrile

> <PUBCHEM_IUPAC_SYSTEMATIC_NAME>
4-[[3-chloranyl-4-(1-methylimidazol-2-yl)sulfanyl-phenyl]amino]-7-[(E)-4-(4-ethylpiperazin-1-yl)but-1-enyl]quinoline-3-carbonitrile

> <PUBCHEM_IUPAC_TRADITIONAL_NAME>
4-[3-chloro-4-[(1-methylimidazol-2-yl)thio]anilino]-7-[(E)-4-(4-ethylpiperazino)but-1-enyl]quinoline-3-carbonitrile

> <PUBCHEM_IUPAC_INCHI>
InChI=1S/C30H32ClN7S/c1-3-37-14-16-38(17-15-37)12-5-4-6-22-7-9-25-27(18-22)34-21-23(20-32)29(25)35-24-8-10-28(26(31)19-24)39-30-33-11-13-36(30)2/h4,6-11,13,18-19,21H,3,5,12,14-17H2,1-2H3,(H,34,35)/b6-4+

> <PUBCHEM_IUPAC_INCHIKEY>
OYAMULIHRWEUAR-GQCTYLIASA-N

> <PUBCHEM_XLOGP3_AA>
6.2

> <PUBCHEM_EXACT_MASS>
557.2128429

> <PUBCHEM_MOLECULAR_FORMULA>
C30H32ClN7S

> <PUBCHEM_MOLECULAR_WEIGHT>
558.1

> <PUBCHEM_SMILES>
CCN1CCN(CC1)CC/C=C/C2=CC3=NC=C(C(=C3C=C2)NC4=CC(=C(C=C4)SC5=NC=CN5C)Cl)C#N

> <PUBCHEM_OPENEYE_CAN_SMILES>
CCN1CCN(CC1)CCC=CC2=CC3=NC=C(C(=C3C=C2)NC4=CC(=C(C=C4)SC5=NC=CN5C)Cl)C#N

> <PUBCHEM_OPENEYE_ISO_SMILES>
CCN1CCN(CC1)CC/C=C/C2=CC3=NC=C(C(=C3C=C2)NC4=CC(=C(C=C4)SC5=NC=CN5C)Cl)C#N

> <PUBCHEM_CACTVS_TPSA>
98.3

> <PUBCHEM_MONOISOTOPIC_WEIGHT>
557.2128429

> <PUBCHEM_TOTAL_CHARGE>
0

> <PUBCHEM_HEAVY_ATOM_COUNT>
39

> <PUBCHEM_ATOM_DEF_STEREO_COUNT>
0

> <PUBCHEM_ATOM_UDEF_STEREO_COUNT>
0

> <PUBCHEM_BOND_DEF_STEREO_COUNT>
1

> <PUBCHEM_BOND_UDEF_STEREO_COUNT>
0

> <PUBCHEM_ISOTOPIC_ATOM_COUNT>
0

> <PUBCHEM_COMPONENT_COUNT>
1

> <PUBCHEM_CACTVS_TAUTO_COUNT>
-1

> <PUBCHEM_COORDINATE_TYPE>
1
5
255

> <PUBCHEM_BONDANNOTATIONS>
20  21  8
20  22  8
21  24  8
22  25  8
23  24  8
23  25  8
23  26  8
26  27  8
27  28  8
29  30  8
29  31  8
30  33  8
31  34  8
32  33  8
32  34  8
37  39  8
6  24  8
6  28  8
7  36  8
7  37  8
8  36  8
8  39  8

$$$$
