44285442
  -OEChem-03202505482D

112119  0     1  0  0  0  0  0999 V2000
    6.8680   -2.6944    0.0000 O   0  0  0  0  0  0  0  0  0  0  0  0
    8.6382   -1.6975    0.0000 O   0  0  0  0  0  0  0  0  0  0  0  0
    4.8772   -2.6603    0.0000 O   0  0  0  0  0  0  0  0  0  0  0  0
    4.2700   -1.1944    0.0000 O   0  0  0  0  0  0  0  0  0  0  0  0
    5.0332    6.9707    0.0000 O   0  0  0  0  0  0  0  0  0  0  0  0
    4.1672    5.4707    0.0000 O   0  0  0  0  0  0  0  0  0  0  0  0
    5.8477   -4.3747    0.0000 O   0  0  0  0  0  0  0  0  0  0  0  0
    5.8772   -2.6603    0.0000 O   0  0  0  0  0  0  0  0  0  0  0  0
    6.3741   -7.0286    0.0000 O   0  0  0  0  0  0  0  0  0  0  0  0
    5.3803   -7.0286    0.0000 O   0  0  0  0  0  0  0  0  0  0  0  0
    9.4464   -5.2705    0.0000 O   0  0  0  0  0  0  0  0  0  0  0  0
    8.4223   -7.0444    0.0000 O   0  0  0  0  0  0  0  0  0  0  0  0
    2.3079   -5.2705    0.0000 O   0  0  0  0  0  0  0  0  0  0  0  0
    3.3321   -7.0444    0.0000 O   0  0  0  0  0  0  0  0  0  0  0  0
    5.9527    2.0023    0.0000 C   0  0  2  0  0  0  0  0  0  0  0  0
    6.8840    0.3749    0.0000 C   0  0  2  0  0  0  0  0  0  0  0  0
    6.8924    1.4598    0.0000 C   0  0  3  0  0  0  0  0  0  0  0  0
    5.9353    3.1324    0.0000 C   0  0  1  0  0  0  0  0  0  0  0  0
    5.9860   -0.1529    0.0000 C   0  0  3  0  0  0  0  0  0  0  0  0
    5.0173    1.4526    0.0000 C   0  0  0  0  0  0  0  0  0  0  0  0
    6.0020   -1.1944    0.0000 C   0  0  1  0  0  0  0  0  0  0  0  0
    5.0340    0.3677    0.0000 C   0  0  0  0  0  0  0  0  0  0  0  0
    6.9097    3.7050    0.0000 C   0  0  0  0  0  0  0  0  0  0  0  0
    7.7861   -0.1460    0.0000 C   0  0  0  0  0  0  0  0  0  0  0  0
    7.8797    2.0097    0.0000 C   0  0  0  0  0  0  0  0  0  0  0  0
    6.9188    4.8821    0.0000 C   0  0  3  0  0  0  0  0  0  0  0  0
    4.9025    3.6972    0.0000 C   0  0  0  0  0  0  0  0  0  0  0  0
    5.8992    5.4707    0.0000 C   0  0  1  0  0  0  0  0  0  0  0  0
    6.8680   -1.6944    0.0000 C   0  0  2  0  0  0  0  0  0  0  0  0
    4.9679    2.1760    0.0000 C   0  0  0  0  0  0  0  0  0  0  0  0
    7.7780   -1.1876    0.0000 C   0  0  2  0  0  0  0  0  0  0  0  0
    4.8843    4.8743    0.0000 C   0  0  0  0  0  0  0  0  0  0  0  0
    7.7462    0.8815    0.0000 C   0  0  0  0  0  0  0  0  0  0  0  0
    7.8884    3.1399    0.0000 C   0  0  0  0  0  0  0  0  0  0  0  0
    4.9519    2.9512    0.0000 C   0  0  0  0  0  0  0  0  0  0  0  0
    7.9900    5.4788    0.0000 C   0  0  0  0  0  0  0  0  0  0  0  0
    5.8804    6.6968    0.0000 C   0  0  0  0  0  0  0  0  0  0  0  0
    5.1360   -1.6944    0.0000 C   0  0  0  0  0  0  0  0  0  0  0  0
    7.9995    6.7050    0.0000 C   0  0  0  0  0  0  0  0  0  0  0  0
    5.1360   -0.6944    0.0000 C   0  0  0  0  0  0  0  0  0  0  0  0
    6.9375    7.3181    0.0000 C   0  0  0  0  0  0  0  0  0  0  0  0
    5.0332    5.9707    0.0000 C   0  0  0  0  0  0  0  0  0  0  0  0
    8.5028    7.5691    0.0000 C   0  0  0  0  0  0  0  0  0  0  0  0
    8.9995    6.7011    0.0000 C   0  0  0  0  0  0  0  0  0  0  0  0
    6.3772   -3.5264    0.0000 C   0  0  0  0  0  0  0  0  0  0  0  0
    5.3772   -3.5264    0.0000 C   0  0  0  0  0  0  0  0  0  0  0  0
    6.8772   -4.3924    0.0000 C   0  0  0  0  0  0  0  0  0  0  0  0
    4.8772   -4.3924    0.0000 C   0  0  0  0  0  0  0  0  0  0  0  0
    6.3772   -5.2584    0.0000 C   0  0  0  0  0  0  0  0  0  0  0  0
    5.3772   -5.2584    0.0000 C   0  0  0  0  0  0  0  0  0  0  0  0
    7.9187   -4.3763    0.0000 C   0  0  0  0  0  0  0  0  0  0  0  0
    3.8357   -4.3763    0.0000 C   0  0  0  0  0  0  0  0  0  0  0  0
    6.8840   -6.1684    0.0000 C   0  0  0  0  0  0  0  0  0  0  0  0
    4.8703   -6.1684    0.0000 C   0  0  0  0  0  0  0  0  0  0  0  0
    8.4464   -5.2744    0.0000 C   0  0  0  0  0  0  0  0  0  0  0  0
    7.9256   -6.1764    0.0000 C   0  0  0  0  0  0  0  0  0  0  0  0
    3.3079   -5.2744    0.0000 C   0  0  0  0  0  0  0  0  0  0  0  0
    3.8287   -6.1764    0.0000 C   0  0  0  0  0  0  0  0  0  0  0  0
    7.4257    1.1436    0.0000 H   0  0  0  0  0  0  0  0  0  0  0  0
    6.5264   -0.4567    0.0000 H   0  0  0  0  0  0  0  0  0  0  0  0
    4.7993    2.0330    0.0000 H   0  0  0  0  0  0  0  0  0  0  0  0
    4.4082    1.3371    0.0000 H   0  0  0  0  0  0  0  0  0  0  0  0
    4.4216    0.4644    0.0000 H   0  0  0  0  0  0  0  0  0  0  0  0
    4.8340   -0.2191    0.0000 H   0  0  0  0  0  0  0  0  0  0  0  0
    8.3961   -0.2568    0.0000 H   0  0  0  0  0  0  0  0  0  0  0  0
    7.9996    0.4361    0.0000 H   0  0  0  0  0  0  0  0  0  0  0  0
    8.0843    1.4245    0.0000 H   0  0  0  0  0  0  0  0  0  0  0  0
    8.4914    2.1111    0.0000 H   0  0  0  0  0  0  0  0  0  0  0  0
    7.4521    4.5660    0.0000 H   0  0  0  0  0  0  0  0  0  0  0  0
    4.2901    3.7939    0.0000 H   0  0  0  0  0  0  0  0  0  0  0  0
    4.7024    3.1104    0.0000 H   0  0  0  0  0  0  0  0  0  0  0  0
    7.6009   -2.1251    0.0000 H   0  0  0  0  0  0  0  0  0  0  0  0
    5.0756    2.7866    0.0000 H   0  0  0  0  0  0  0  0  0  0  0  0
    4.3574    2.2836    0.0000 H   0  0  0  0  0  0  0  0  0  0  0  0
    4.8603    1.5654    0.0000 H   0  0  0  0  0  0  0  0  0  0  0  0
    4.6663    5.4547    0.0000 H   0  0  0  0  0  0  0  0  0  0  0  0
    4.2752    4.7588    0.0000 H   0  0  0  0  0  0  0  0  0  0  0  0
    7.7697   -1.8075    0.0000 H   0  0  0  0  0  0  0  0  0  0  0  0
    8.0603    0.3470    0.0000 H   0  0  0  0  0  0  0  0  0  0  0  0
    8.2807    1.1957    0.0000 H   0  0  0  0  0  0  0  0  0  0  0  0
    7.4320    1.4160    0.0000 H   0  0  0  0  0  0  0  0  0  0  0  0
    8.4266    3.4478    0.0000 H   0  0  0  0  0  0  0  0  0  0  0  0
    4.8395    3.5609    0.0000 H   0  0  0  0  0  0  0  0  0  0  0  0
    4.3421    2.8388    0.0000 H   0  0  0  0  0  0  0  0  0  0  0  0
    5.0642    2.3414    0.0000 H   0  0  0  0  0  0  0  0  0  0  0  0
    8.1946    4.8935    0.0000 H   0  0  0  0  0  0  0  0  0  0  0  0
    8.6017    5.5802    0.0000 H   0  0  0  0  0  0  0  0  0  0  0  0
    5.6623    7.2772    0.0000 H   0  0  0  0  0  0  0  0  0  0  0  0
    5.2712    6.5813    0.0000 H   0  0  0  0  0  0  0  0  0  0  0  0
    4.9755   -1.0955    0.0000 H   0  0  0  0  0  0  0  0  0  0  0  0
    4.5160   -1.6944    0.0000 H   0  0  0  0  0  0  0  0  0  0  0  0
    5.5345   -0.2195    0.0000 H   0  0  0  0  0  0  0  0  0  0  0  0
    4.7375   -0.2195    0.0000 H   0  0  0  0  0  0  0  0  0  0  0  0
    7.3348    7.7941    0.0000 H   0  0  0  0  0  0  0  0  0  0  0  0
    6.5366    7.7910    0.0000 H   0  0  0  0  0  0  0  0  0  0  0  0
    9.1787   -1.3938    0.0000 H   0  0  0  0  0  0  0  0  0  0  0  0
    9.0385    7.2570    0.0000 H   0  0  0  0  0  0  0  0  0  0  0  0
    8.8149    8.1048    0.0000 H   0  0  0  0  0  0  0  0  0  0  0  0
    7.9671    7.8812    0.0000 H   0  0  0  0  0  0  0  0  0  0  0  0
    8.9971    6.0811    0.0000 H   0  0  0  0  0  0  0  0  0  0  0  0
    9.6195    6.6987    0.0000 H   0  0  0  0  0  0  0  0  0  0  0  0
    9.0018    7.3211    0.0000 H   0  0  0  0  0  0  0  0  0  0  0  0
    3.7330   -0.8844    0.0000 H   0  0  0  0  0  0  0  0  0  0  0  0
    4.4963    7.2807    0.0000 H   0  0  0  0  0  0  0  0  0  0  0  0
    8.2225   -3.8358    0.0000 H   0  0  0  0  0  0  0  0  0  0  0  0
    3.5319   -3.8358    0.0000 H   0  0  0  0  0  0  0  0  0  0  0  0
    6.6778   -7.5691    0.0000 H   0  0  0  0  0  0  0  0  0  0  0  0
    5.0766   -7.5691    0.0000 H   0  0  0  0  0  0  0  0  0  0  0  0
    9.7544   -4.7324    0.0000 H   0  0  0  0  0  0  0  0  0  0  0  0
    9.0423   -7.0468    0.0000 H   0  0  0  0  0  0  0  0  0  0  0  0
    2.0000   -4.7324    0.0000 H   0  0  0  0  0  0  0  0  0  0  0  0
    2.7121   -7.0468    0.0000 H   0  0  0  0  0  0  0  0  0  0  0  0
  1 29  1  0  0  0  0
  1 45  1  0  0  0  0
 31  2  1  1  0  0  0
  2 96  1  0  0  0  0
  3 38  1  0  0  0  0
  3 46  1  0  0  0  0
  4 40  1  0  0  0  0
  4103  1  0  0  0  0
  5 42  1  0  0  0  0
  5104  1  0  0  0  0
  6 42  2  0  0  0  0
  7 45  2  0  0  0  0
  8 46  2  0  0  0  0
  9 53  1  0  0  0  0
  9107  1  0  0  0  0
 10 54  1  0  0  0  0
 10108  1  0  0  0  0
 11 55  1  0  0  0  0
 11109  1  0  0  0  0
 12 56  1  0  0  0  0
 12110  1  0  0  0  0
 13 57  1  0  0  0  0
 13111  1  0  0  0  0
 14 58  1  0  0  0  0
 14112  1  0  0  0  0
 15 17  1  0  0  0  0
 15 18  1  0  0  0  0
 15 20  1  0  0  0  0
 15 30  1  6  0  0  0
 16 17  1  0  0  0  0
 16 19  1  0  0  0  0
 16 24  1  0  0  0  0
 16 33  1  6  0  0  0
 17 25  1  0  0  0  0
 17 59  1  0  0  0  0
 18 23  1  0  0  0  0
 18 27  1  0  0  0  0
 18 35  1  1  0  0  0
 19 21  1  0  0  0  0
 19 22  1  0  0  0  0
 19 60  1  0  0  0  0
 20 22  1  0  0  0  0
 20 61  1  0  0  0  0
 20 62  1  0  0  0  0
 21 29  1  0  0  0  0
 21 38  1  0  0  0  0
 21 40  1  6  0  0  0
 22 63  1  0  0  0  0
 22 64  1  0  0  0  0
 23 26  1  0  0  0  0
 23 34  2  0  0  0  0
 24 31  1  0  0  0  0
 24 65  1  0  0  0  0
 24 66  1  0  0  0  0
 25 34  1  0  0  0  0
 25 67  1  0  0  0  0
 25 68  1  0  0  0  0
 26 28  1  0  0  0  0
 26 36  1  0  0  0  0
 26 69  1  0  0  0  0
 27 32  1  0  0  0  0
 27 70  1  0  0  0  0
 27 71  1  0  0  0  0
 28 32  1  0  0  0  0
 28 37  1  0  0  0  0
 28 42  1  6  0  0  0
 29 31  1  0  0  0  0
 29 72  1  1  0  0  0
 30 73  1  0  0  0  0
 30 74  1  0  0  0  0
 30 75  1  0  0  0  0
 31 78  1  0  0  0  0
 32 76  1  0  0  0  0
 32 77  1  0  0  0  0
 33 79  1  0  0  0  0
 33 80  1  0  0  0  0
 33 81  1  0  0  0  0
 34 82  1  0  0  0  0
 35 83  1  0  0  0  0
 35 84  1  0  0  0  0
 35 85  1  0  0  0  0
 36 39  1  0  0  0  0
 36 86  1  0  0  0  0
 36 87  1  0  0  0  0
 37 41  1  0  0  0  0
 37 88  1  0  0  0  0
 37 89  1  0  0  0  0
 38 90  1  0  0  0  0
 38 91  1  0  0  0  0
 39 41  1  0  0  0  0
 39 43  1  0  0  0  0
 39 44  1  0  0  0  0
 40 92  1  0  0  0  0
 40 93  1  0  0  0  0
 41 94  1  0  0  0  0
 41 95  1  0  0  0  0
 43 97  1  0  0  0  0
 43 98  1  0  0  0  0
 43 99  1  0  0  0  0
 44100  1  0  0  0  0
 44101  1  0  0  0  0
 44102  1  0  0  0  0
 45 47  1  0  0  0  0
 46 48  1  0  0  0  0
 47 49  1  0  0  0  0
 47 51  2  0  0  0  0
 48 50  1  0  0  0  0
 48 52  2  0  0  0  0
 49 50  1  0  0  0  0
 49 53  2  0  0  0  0
 50 54  2  0  0  0  0
 51 55  1  0  0  0  0
 51105  1  0  0  0  0
 52 57  1  0  0  0  0
 52106  1  0  0  0  0
 53 56  1  0  0  0  0
 54 58  1  0  0  0  0
 55 56  2  0  0  0  0
 57 58  2  0  0  0  0
M  END
> <PUBCHEM_COMPOUND_CID>
44285442

> <PUBCHEM_COMPOUND_CANONICALIZED>
1

> <PUBCHEM_CACTVS_COMPLEXITY>
1720

> <PUBCHEM_CACTVS_HBOND_ACCEPTOR>
14

> <PUBCHEM_CACTVS_HBOND_DONOR>
9

> <PUBCHEM_CACTVS_ROTATABLE_BOND>
2

> <PUBCHEM_CACTVS_SUBSKEYS>
AAADcfB8PAAAAAAAAAAAAAAAAAAAAAAAAAAwYMGDAAAAAADBQAAAGgAACAAADxSgmAIyDoAABgCIAiDSCAACAAAkIAAAiAEGiMgJNzKCNRqCcQElwBULuYfK7PzPoAABCAAYQADAAAYQADCAAAAAAAAAAA==

> <PUBCHEM_IUPAC_OPENEYE_NAME>
(1S,5R,6S,9S,19R,21R,22R)-21,27,28,29,32,33,34-heptahydroxy-1-(hydroxymethyl)-5,6,12,12,19-pentamethyl-24,37-dioxo-23,38-dioxaoctacyclo[20.17.0.02,19.05,18.06,15.09,14.025,30.031,36]nonatriaconta-15,25,27,29,31,33,35-heptaene-9-carboxylic acid

> <PUBCHEM_IUPAC_CAS_NAME>
(1S,5R,6S,9S,19R,21R,22R)-21,27,28,29,32,33,34-heptahydroxy-1-(hydroxymethyl)-5,6,12,12,19-pentamethyl-24,37-dioxo-23,38-dioxaoctacyclo[20.17.0.02,19.05,18.06,15.09,14.025,30.031,36]nonatriaconta-15,25,27,29,31,33,35-heptaene-9-carboxylic acid

> <PUBCHEM_IUPAC_NAME_MARKUP>
(1<I>S</I>,5<I>R</I>,6<I>S</I>,9<I>S</I>,19<I>R</I>,21<I>R</I>,22<I>R</I>)-21,27,28,29,32,33,34-heptahydroxy-1-(hydroxymethyl)-5,6,12,12,19-pentamethyl-24,37-dioxo-23,38-dioxaoctacyclo[20.17.0.0<SUP>2,19</SUP>.0<SUP>5,18</SUP>.0<SUP>6,15</SUP>.0<SUP>9,14</SUP>.0<SUP>25,30</SUP>.0<SUP>31,36</SUP>]nonatriaconta-15,25,27,29,31,33,35-heptaene-9-carboxylic acid

> <PUBCHEM_IUPAC_NAME>
(1S,5R,6S,9S,19R,21R,22R)-21,27,28,29,32,33,34-heptahydroxy-1-(hydroxymethyl)-5,6,12,12,19-pentamethyl-24,37-dioxo-23,38-dioxaoctacyclo[20.17.0.02,19.05,18.06,15.09,14.025,30.031,36]nonatriaconta-15,25,27,29,31,33,35-heptaene-9-carboxylic acid

> <PUBCHEM_IUPAC_SYSTEMATIC_NAME>
(1S,5R,6S,9S,19R,21R,22R)-1-(hydroxymethyl)-5,6,12,12,19-pentamethyl-21,27,28,29,32,33,34-heptakis(oxidanyl)-24,37-bis(oxidanylidene)-23,38-dioxaoctacyclo[20.17.0.02,19.05,18.06,15.09,14.025,30.031,36]nonatriaconta-15,25,27,29,31,33,35-heptaene-9-carboxylic acid

> <PUBCHEM_IUPAC_TRADITIONAL_NAME>
(1S,5R,6S,9S,19R,21R,22R)-21,27,28,29,32,33,34-heptahydroxy-24,37-diketo-5,6,12,12,19-pentamethyl-1-methylol-23,38-dioxaoctacyclo[20.17.0.02,19.05,18.06,15.09,14.025,30.031,36]nonatriaconta-15,25,27,29,31,33,35-heptaene-9-carboxylic acid

> <PUBCHEM_IUPAC_INCHI>
InChI=1S/C44H54O14/c1-39(2)10-12-43(38(55)56)13-11-41(4)22(23(43)16-39)6-7-27-40(3)17-26(48)35-44(18-45,28(40)8-9-42(27,41)5)19-57-36(53)20-14-24(46)31(49)33(51)29(20)30-21(37(54)58-35)15-25(47)32(50)34(30)52/h6,14-15,23,26-28,35,45-52H,7-13,16-19H2,1-5H3,(H,55,56)/t23?,26-,27?,28?,35+,40-,41-,42-,43+,44+/m1/s1

> <PUBCHEM_IUPAC_INCHIKEY>
USPKAGJBZAFJHG-OEBKKAEMSA-N

> <PUBCHEM_XLOGP3_AA>
6.1

> <PUBCHEM_EXACT_MASS>
806.35135639

> <PUBCHEM_MOLECULAR_FORMULA>
C44H54O14

> <PUBCHEM_MOLECULAR_WEIGHT>
806.9

> <PUBCHEM_SMILES>
C[C@@]12CCC3[C@@](C1CC=C4[C@]2(CC[C@@]5(C4CC(CC5)(C)C)C(=O)O)C)(C[C@H]([C@H]6[C@]3(COC(=O)C7=CC(=C(C(=C7C8=C(C(=C(C=C8C(=O)O6)O)O)O)O)O)O)CO)O)C

> <PUBCHEM_OPENEYE_CAN_SMILES>
CC1(CCC2(CCC3(C(=CCC4C3(CCC5C4(CC(C6C5(COC(=O)C7=CC(=C(C(=C7C8=C(C(=C(C=C8C(=O)O6)O)O)O)O)O)O)CO)O)C)C)C2C1)C)C(=O)O)C

> <PUBCHEM_OPENEYE_ISO_SMILES>
C[C@@]12CCC3[C@@](C1CC=C4[C@]2(CC[C@@]5(C4CC(CC5)(C)C)C(=O)O)C)(C[C@H]([C@H]6[C@]3(COC(=O)C7=CC(=C(C(=C7C8=C(C(=C(C=C8C(=O)O6)O)O)O)O)O)O)CO)O)C

> <PUBCHEM_CACTVS_TPSA>
252

> <PUBCHEM_MONOISOTOPIC_WEIGHT>
806.35135639

> <PUBCHEM_TOTAL_CHARGE>
0

> <PUBCHEM_HEAVY_ATOM_COUNT>
58

> <PUBCHEM_ATOM_DEF_STEREO_COUNT>
7

> <PUBCHEM_ATOM_UDEF_STEREO_COUNT>
3

> <PUBCHEM_BOND_DEF_STEREO_COUNT>
0

> <PUBCHEM_BOND_UDEF_STEREO_COUNT>
0

> <PUBCHEM_ISOTOPIC_ATOM_COUNT>
0

> <PUBCHEM_COMPONENT_COUNT>
1

> <PUBCHEM_CACTVS_TAUTO_COUNT>
-1

> <PUBCHEM_COORDINATE_TYPE>
1
5
255

> <PUBCHEM_BONDANNOTATIONS>
15  30  6
16  33  6
17  25  3
18  35  5
19  22  3
31  2  5
21  40  6
26  36  3
28  42  6
29  72  5
47  49  8
47  51  8
48  50  8
48  52  8
49  53  8
50  54  8
51  55  8
52  57  8
53  56  8
54  58  8
55  56  8
57  58  8

$$$$
