5111160
  -OEChem-03202503182D

 46 48  0     0  0  0  0  0  0999 V2000
   11.7920    1.7583    0.0000 Cl  0  0  0  0  0  0  0  0  0  0  0  0
    8.4527    5.4798    0.0000 F   0  0  0  0  0  0  0  0  0  0  0  0
    9.8649    5.4034    0.0000 F   0  0  0  0  0  0  0  0  0  0  0  0
    8.3763    4.0677    0.0000 F   0  0  0  0  0  0  0  0  0  0  0  0
    8.1886    1.8840    0.0000 O   0  0  0  0  0  0  0  0  0  0  0  0
    7.9244   -1.7119    0.0000 O   0  0  0  0  0  0  0  0  0  0  0  0
    4.6783   -4.8905    0.0000 N   0  0  0  0  0  0  0  0  0  0  0  0
    9.8349    1.3459    0.0000 N   0  0  0  0  0  0  0  0  0  0  0  0
    6.2781   -1.1738    0.0000 N   0  0  0  0  0  0  0  0  0  0  0  0
    5.9674   -2.1243    0.0000 N   0  0  0  0  0  0  0  0  0  0  0  0
    3.7320   -3.5858    0.0000 C   0  0  0  0  0  0  0  0  0  0  0  0
    3.7320   -4.5858    0.0000 C   0  0  0  0  0  0  0  0  0  0  0  0
    4.6783   -3.2811    0.0000 C   0  0  0  0  0  0  0  0  0  0  0  0
    8.5458    0.1892    0.0000 C   0  0  0  0  0  0  0  0  0  0  0  0
    5.2619   -4.0858    0.0000 C   0  0  0  0  0  0  0  0  0  0  0  0
    7.5673   -0.0171    0.0000 C   0  0  0  0  0  0  0  0  0  0  0  0
    2.8660   -3.0858    0.0000 C   0  0  0  0  0  0  0  0  0  0  0  0
    2.8660   -5.0858    0.0000 C   0  0  0  0  0  0  0  0  0  0  0  0
   10.1456    2.2964    0.0000 C   0  0  0  0  0  0  0  0  0  0  0  0
    8.8564    1.1397    0.0000 C   0  0  0  0  0  0  0  0  0  0  0  0
    9.7884    3.9912    0.0000 C   0  0  0  0  0  0  0  0  0  0  0  0
    4.9889   -2.3305    0.0000 C   0  0  0  0  0  0  0  0  0  0  0  0
    9.4778    3.0407    0.0000 C   0  0  0  0  0  0  0  0  0  0  0  0
    2.0000   -3.5858    0.0000 C   0  0  0  0  0  0  0  0  0  0  0  0
    2.0000   -4.5858    0.0000 C   0  0  0  0  0  0  0  0  0  0  0  0
    7.2566   -0.9676    0.0000 C   0  0  0  0  0  0  0  0  0  0  0  0
   11.1241    2.5026    0.0000 C   0  0  0  0  0  0  0  0  0  0  0  0
   10.7669    4.1975    0.0000 C   0  0  0  0  0  0  0  0  0  0  0  0
   11.4348    3.4532    0.0000 C   0  0  0  0  0  0  0  0  0  0  0  0
    9.1206    4.7355    0.0000 C   0  0  0  0  0  0  0  0  0  0  0  0
    8.5663   -0.4305    0.0000 H   0  0  0  0  0  0  0  0  0  0  0  0
    9.1596    0.1018    0.0000 H   0  0  0  0  0  0  0  0  0  0  0  0
    4.8709   -5.4798    0.0000 H   0  0  0  0  0  0  0  0  0  0  0  0
    5.8819   -4.0858    0.0000 H   0  0  0  0  0  0  0  0  0  0  0  0
    7.5467    0.6026    0.0000 H   0  0  0  0  0  0  0  0  0  0  0  0
    6.9534    0.0703    0.0000 H   0  0  0  0  0  0  0  0  0  0  0  0
    2.8660   -2.4658    0.0000 H   0  0  0  0  0  0  0  0  0  0  0  0
    2.8660   -5.7058    0.0000 H   0  0  0  0  0  0  0  0  0  0  0  0
   10.2490    0.8844    0.0000 H   0  0  0  0  0  0  0  0  0  0  0  0
    8.8711    2.9129    0.0000 H   0  0  0  0  0  0  0  0  0  0  0  0
    4.5749   -1.8691    0.0000 H   0  0  0  0  0  0  0  0  0  0  0  0
    1.4631   -3.2758    0.0000 H   0  0  0  0  0  0  0  0  0  0  0  0
    1.4631   -4.8958    0.0000 H   0  0  0  0  0  0  0  0  0  0  0  0
   10.9595    4.7868    0.0000 H   0  0  0  0  0  0  0  0  0  0  0  0
   12.0414    3.5810    0.0000 H   0  0  0  0  0  0  0  0  0  0  0  0
    5.8640   -0.7123    0.0000 H   0  0  0  0  0  0  0  0  0  0  0  0
  1 27  1  0  0  0  0
  2 30  1  0  0  0  0
  3 30  1  0  0  0  0
  4 30  1  0  0  0  0
  5 20  2  0  0  0  0
  6 26  2  0  0  0  0
  7 12  1  0  0  0  0
  7 15  1  0  0  0  0
  7 33  1  0  0  0  0
  8 19  1  0  0  0  0
  8 20  1  0  0  0  0
  8 39  1  0  0  0  0
  9 10  1  0  0  0  0
  9 26  1  0  0  0  0
  9 46  1  0  0  0  0
 10 22  2  3  0  0  0
 11 12  1  0  0  0  0
 11 13  1  0  0  0  0
 11 17  2  0  0  0  0
 12 18  2  0  0  0  0
 13 15  2  0  0  0  0
 13 22  1  0  0  0  0
 14 16  1  0  0  0  0
 14 20  1  0  0  0  0
 14 31  1  0  0  0  0
 14 32  1  0  0  0  0
 15 34  1  0  0  0  0
 16 26  1  0  0  0  0
 16 35  1  0  0  0  0
 16 36  1  0  0  0  0
 17 24  1  0  0  0  0
 17 37  1  0  0  0  0
 18 25  1  0  0  0  0
 18 38  1  0  0  0  0
 19 23  1  0  0  0  0
 19 27  2  0  0  0  0
 21 23  2  0  0  0  0
 21 28  1  0  0  0  0
 21 30  1  0  0  0  0
 22 41  1  0  0  0  0
 23 40  1  0  0  0  0
 24 25  2  0  0  0  0
 24 42  1  0  0  0  0
 25 43  1  0  0  0  0
 27 29  1  0  0  0  0
 28 29  2  0  0  0  0
 28 44  1  0  0  0  0
 29 45  1  0  0  0  0
M  END
> <PUBCHEM_COMPOUND_CID>
5111160

> <PUBCHEM_COMPOUND_CANONICALIZED>
1

> <PUBCHEM_CACTVS_COMPLEXITY>
646

> <PUBCHEM_CACTVS_HBOND_ACCEPTOR>
6

> <PUBCHEM_CACTVS_HBOND_DONOR>
3

> <PUBCHEM_CACTVS_ROTATABLE_BOND>
6

> <PUBCHEM_CACTVS_SUBSKEYS>
AAADceB7sYAEAAAAAAAAAAAAAAAAAWAAAAAwYAAAAAAAAFgB9AAAHwIYAAAADArBnjQ8wPLrkACoAzV3VACSgCAxByAa2aE4ZpgIIPLBk5HEIAhgnADIyAcVgMAOhAAAQAACABAIAACAAAQAIAAAAAAAAA==

> <PUBCHEM_IUPAC_OPENEYE_NAME>
N-[2-chloro-5-(trifluoromethyl)phenyl]-N'-(1H-indol-3-ylmethyleneamino)butanediamide

> <PUBCHEM_IUPAC_CAS_NAME>
N-[2-chloro-5-(trifluoromethyl)phenyl]-N'-(1H-indol-3-ylmethylideneamino)butanediamide

> <PUBCHEM_IUPAC_NAME_MARKUP>
<I>N</I>-[2-chloro-5-(trifluoromethyl)phenyl]-<I>N</I>&apos;-(1<I>H</I>-indol-3-ylmethylideneamino)butanediamide

> <PUBCHEM_IUPAC_NAME>
N-[2-chloro-5-(trifluoromethyl)phenyl]-N'-(1H-indol-3-ylmethylideneamino)butanediamide

> <PUBCHEM_IUPAC_SYSTEMATIC_NAME>
N-[2-chloranyl-5-(trifluoromethyl)phenyl]-N'-(1H-indol-3-ylmethylideneamino)butanediamide

> <PUBCHEM_IUPAC_TRADITIONAL_NAME>
N-[2-chloro-5-(trifluoromethyl)phenyl]-N'-(1H-indol-3-ylmethyleneamino)succinamide

> <PUBCHEM_IUPAC_INCHI>
InChI=1S/C20H16ClF3N4O2/c21-15-6-5-13(20(22,23)24)9-17(15)27-18(29)7-8-19(30)28-26-11-12-10-25-16-4-2-1-3-14(12)16/h1-6,9-11,25H,7-8H2,(H,27,29)(H,28,30)

> <PUBCHEM_IUPAC_INCHIKEY>
OQUHAFCCSZWHJX-UHFFFAOYSA-N

> <PUBCHEM_XLOGP3_AA>
3.6

> <PUBCHEM_EXACT_MASS>
436.0913879

> <PUBCHEM_MOLECULAR_FORMULA>
C20H16ClF3N4O2

> <PUBCHEM_MOLECULAR_WEIGHT>
436.8

> <PUBCHEM_SMILES>
C1=CC=C2C(=C1)C(=CN2)C=NNC(=O)CCC(=O)NC3=C(C=CC(=C3)C(F)(F)F)Cl

> <PUBCHEM_OPENEYE_CAN_SMILES>
C1=CC=C2C(=C1)C(=CN2)C=NNC(=O)CCC(=O)NC3=C(C=CC(=C3)C(F)(F)F)Cl

> <PUBCHEM_OPENEYE_ISO_SMILES>
C1=CC=C2C(=C1)C(=CN2)C=NNC(=O)CCC(=O)NC3=C(C=CC(=C3)C(F)(F)F)Cl

> <PUBCHEM_CACTVS_TPSA>
86.4

> <PUBCHEM_MONOISOTOPIC_WEIGHT>
436.0913879

> <PUBCHEM_TOTAL_CHARGE>
0

> <PUBCHEM_HEAVY_ATOM_COUNT>
30

> <PUBCHEM_ATOM_DEF_STEREO_COUNT>
0

> <PUBCHEM_ATOM_UDEF_STEREO_COUNT>
0

> <PUBCHEM_BOND_DEF_STEREO_COUNT>
0

> <PUBCHEM_BOND_UDEF_STEREO_COUNT>
1

> <PUBCHEM_ISOTOPIC_ATOM_COUNT>
0

> <PUBCHEM_COMPONENT_COUNT>
1

> <PUBCHEM_CACTVS_TAUTO_COUNT>
-1

> <PUBCHEM_COORDINATE_TYPE>
1
5
255

> <PUBCHEM_BONDANNOTATIONS>
10  22  1
11  12  8
11  13  8
11  17  8
12  18  8
13  15  8
17  24  8
18  25  8
19  23  8
19  27  8
21  23  8
21  28  8
24  25  8
27  29  8
28  29  8
7  12  8
7  15  8

$$$$
