44352846
  -OEChem-03202505382D

 74 82  0     1  0  0  0  0  0999 V2000
    7.5253    2.3172    0.0000 O   0  0  0  0  0  0  0  0  0  0  0  0
    9.3271   -1.4246    0.0000 O   0  0  0  0  0  0  0  0  0  0  0  0
    3.4737   -2.7437    0.0000 O   0  0  0  0  0  0  0  0  0  0  0  0
    2.2501    0.6180    0.0000 O   0  0  0  0  0  0  0  0  0  0  0  0
   11.4661    1.6176    0.0000 O   0  0  0  0  0  0  0  0  0  0  0  0
    6.9273   -0.6474    0.0000 N   0  0  0  0  0  0  0  0  0  0  0  0
    6.2433    1.2320    0.0000 N   0  0  0  0  0  0  0  0  0  0  0  0
   11.0179   -0.0555    0.0000 N   0  0  0  0  0  0  0  0  0  0  0  0
    2.5826   -1.1645    0.0000 N   0  0  0  0  0  0  0  0  0  0  0  0
    8.0031    0.3687    0.0000 C   0  0  1  0  0  0  0  0  0  0  0  0
    9.2748   -0.4260    0.0000 C   0  0  2  0  0  0  0  0  0  0  0  0
    8.2619    1.3346    0.0000 C   0  0  2  0  0  0  0  0  0  0  0  0
   10.0519    0.2034    0.0000 C   0  0  2  0  0  0  0  0  0  0  0  0
    9.6936    1.1369    0.0000 C   0  0  0  0  0  0  0  0  0  0  0  0
    5.9425   -0.4737    0.0000 C   0  0  0  0  0  0  0  0  0  0  0  0
    5.6005    0.4660    0.0000 C   0  0  0  0  0  0  0  0  0  0  0  0
    5.2853   -1.2819    0.0000 C   0  0  0  0  0  0  0  0  0  0  0  0
    4.5776    0.6626    0.0000 C   0  0  0  0  0  0  0  0  0  0  0  0
    6.9003   -1.6408    0.0000 C   0  0  0  0  0  0  0  0  0  0  0  0
    7.7443   -0.5972    0.0000 C   0  0  0  0  0  0  0  0  0  0  0  0
    5.5840    1.9757    0.0000 C   0  0  0  0  0  0  0  0  0  0  0  0
    4.2582   -1.1089    0.0000 C   0  0  0  0  0  0  0  0  0  0  0  0
    5.9733   -1.9990    0.0000 C   0  0  0  0  0  0  0  0  0  0  0  0
    3.9019   -0.1301    0.0000 C   0  0  0  0  0  0  0  0  0  0  0  0
    4.6436    1.6543    0.0000 C   0  0  0  0  0  0  0  0  0  0  0  0
    3.4406   -1.7443    0.0000 C   0  0  1  0  0  0  0  0  0  0  0  0
    7.7162   -2.2780    0.0000 C   0  0  0  0  0  0  0  0  0  0  0  0
    2.8672   -0.1689    0.0000 C   0  0  0  0  0  0  0  0  0  0  0  0
    5.7979   -3.0193    0.0000 C   0  0  0  0  0  0  0  0  0  0  0  0
    5.7995    2.9882    0.0000 C   0  0  0  0  0  0  0  0  0  0  0  0
   11.2767   -1.0214    0.0000 C   0  0  0  0  0  0  0  0  0  0  0  0
    3.8535    2.3231    0.0000 C   0  0  0  0  0  0  0  0  0  0  0  0
   11.7250    0.6516    0.0000 C   0  0  0  0  0  0  0  0  0  0  0  0
   10.2181   -1.8786    0.0000 C   0  0  0  0  0  0  0  0  0  0  0  0
    7.5644   -3.3020    0.0000 C   0  0  0  0  0  0  0  0  0  0  0  0
    6.5988   -3.6751    0.0000 C   0  0  0  0  0  0  0  0  0  0  0  0
    5.0250    3.6751    0.0000 C   0  0  0  0  0  0  0  0  0  0  0  0
    4.0454    3.3403    0.0000 C   0  0  0  0  0  0  0  0  0  0  0  0
   12.6909    0.3928    0.0000 C   0  0  0  0  0  0  0  0  0  0  0  0
   12.9497   -0.5731    0.0000 C   0  0  0  0  0  0  0  0  0  0  0  0
   13.3980    1.0999    0.0000 C   0  0  0  0  0  0  0  0  0  0  0  0
   13.9156   -0.8319    0.0000 C   0  0  0  0  0  0  0  0  0  0  0  0
   14.3639    0.8411    0.0000 C   0  0  0  0  0  0  0  0  0  0  0  0
   14.6227   -0.1248    0.0000 C   0  0  0  0  0  0  0  0  0  0  0  0
    9.8412   -0.6781    0.0000 H   0  0  0  0  0  0  0  0  0  0  0  0
    8.4819    2.1556    0.0000 H   0  0  0  0  0  0  0  0  0  0  0  0
   10.4668    0.6641    0.0000 H   0  0  0  0  0  0  0  0  0  0  0  0
   10.3014    1.2593    0.0000 H   0  0  0  0  0  0  0  0  0  0  0  0
    9.6745    1.7566    0.0000 H   0  0  0  0  0  0  0  0  0  0  0  0
    7.1454   -0.4368    0.0000 H   0  0  0  0  0  0  0  0  0  0  0  0
    7.5838   -1.1961    0.0000 H   0  0  0  0  0  0  0  0  0  0  0  0
    8.3432   -0.7577    0.0000 H   0  0  0  0  0  0  0  0  0  0  0  0
    2.8979   -2.0442    0.0000 H   0  0  0  0  0  0  0  0  0  0  0  0
    8.2919   -2.0478    0.0000 H   0  0  0  0  0  0  0  0  0  0  0  0
    5.2171   -3.2360    0.0000 H   0  0  0  0  0  0  0  0  0  0  0  0
    6.3884    3.1820    0.0000 H   0  0  0  0  0  0  0  0  0  0  0  0
    2.0000   -1.3766    0.0000 H   0  0  0  0  0  0  0  0  0  0  0  0
   10.6778   -1.1818    0.0000 H   0  0  0  0  0  0  0  0  0  0  0  0
   11.4371   -1.6203    0.0000 H   0  0  0  0  0  0  0  0  0  0  0  0
   11.8755   -0.8609    0.0000 H   0  0  0  0  0  0  0  0  0  0  0  0
    3.2692    2.1157    0.0000 H   0  0  0  0  0  0  0  0  0  0  0  0
    9.9366   -2.4310    0.0000 H   0  0  0  0  0  0  0  0  0  0  0  0
   10.7705   -2.1600    0.0000 H   0  0  0  0  0  0  0  0  0  0  0  0
   10.4996   -1.3262    0.0000 H   0  0  0  0  0  0  0  0  0  0  0  0
    8.0486   -3.6892    0.0000 H   0  0  0  0  0  0  0  0  0  0  0  0
    6.5009   -4.2873    0.0000 H   0  0  0  0  0  0  0  0  0  0  0  0
    5.1470    4.2830    0.0000 H   0  0  0  0  0  0  0  0  0  0  0  0
    3.5769    3.7463    0.0000 H   0  0  0  0  0  0  0  0  0  0  0  0
    2.9474   -3.0714    0.0000 H   0  0  0  0  0  0  0  0  0  0  0  0
   12.5113   -1.0115    0.0000 H   0  0  0  0  0  0  0  0  0  0  0  0
   13.2375    1.6988    0.0000 H   0  0  0  0  0  0  0  0  0  0  0  0
   14.0761   -1.4308    0.0000 H   0  0  0  0  0  0  0  0  0  0  0  0
   14.8023    1.2795    0.0000 H   0  0  0  0  0  0  0  0  0  0  0  0
   15.2216   -0.2853    0.0000 H   0  0  0  0  0  0  0  0  0  0  0  0
  1 10  1  0  0  0  0
  1 12  1  0  0  0  0
 11  2  1  6  0  0  0
  2 34  1  0  0  0  0
 26  3  1  1  0  0  0
  3 69  1  0  0  0  0
  4 28  2  0  0  0  0
  5 33  2  0  0  0  0
  6 10  1  0  0  0  0
  6 15  1  0  0  0  0
  6 19  1  0  0  0  0
  7 12  1  0  0  0  0
  7 16  1  0  0  0  0
  7 21  1  0  0  0  0
 13  8  1  6  0  0  0
  8 31  1  0  0  0  0
  8 33  1  0  0  0  0
  9 26  1  0  0  0  0
  9 28  1  0  0  0  0
  9 57  1  0  0  0  0
 10 11  1  0  0  0  0
 10 20  1  1  0  0  0
 11 13  1  0  0  0  0
 11 45  1  0  0  0  0
 12 14  1  0  0  0  0
 12 46  1  6  0  0  0
 13 14  1  0  0  0  0
 13 47  1  0  0  0  0
 14 48  1  0  0  0  0
 14 49  1  0  0  0  0
 15 16  2  0  0  0  0
 15 17  1  0  0  0  0
 16 18  1  0  0  0  0
 17 22  2  0  0  0  0
 17 23  1  0  0  0  0
 18 24  2  0  0  0  0
 18 25  1  0  0  0  0
 19 23  1  0  0  0  0
 19 27  2  0  0  0  0
 20 50  1  0  0  0  0
 20 51  1  0  0  0  0
 20 52  1  0  0  0  0
 21 25  1  0  0  0  0
 21 30  2  0  0  0  0
 22 24  1  0  0  0  0
 22 26  1  0  0  0  0
 23 29  2  0  0  0  0
 24 28  1  0  0  0  0
 25 32  2  0  0  0  0
 26 53  1  0  0  0  0
 27 35  1  0  0  0  0
 27 54  1  0  0  0  0
 29 36  1  0  0  0  0
 29 55  1  0  0  0  0
 30 37  1  0  0  0  0
 30 56  1  0  0  0  0
 31 58  1  0  0  0  0
 31 59  1  0  0  0  0
 31 60  1  0  0  0  0
 32 38  1  0  0  0  0
 32 61  1  0  0  0  0
 33 39  1  0  0  0  0
 34 62  1  0  0  0  0
 34 63  1  0  0  0  0
 34 64  1  0  0  0  0
 35 36  2  0  0  0  0
 35 65  1  0  0  0  0
 36 66  1  0  0  0  0
 37 38  2  0  0  0  0
 37 67  1  0  0  0  0
 38 68  1  0  0  0  0
 39 40  2  0  0  0  0
 39 41  1  0  0  0  0
 40 42  1  0  0  0  0
 40 70  1  0  0  0  0
 41 43  2  0  0  0  0
 41 71  1  0  0  0  0
 42 44  2  0  0  0  0
 42 72  1  0  0  0  0
 43 44  1  0  0  0  0
 43 73  1  0  0  0  0
 44 74  1  0  0  0  0
M  END
> <PUBCHEM_COMPOUND_CID>
44352846

> <PUBCHEM_COMPOUND_CANONICALIZED>
1

> <PUBCHEM_CACTVS_COMPLEXITY>
1180

> <PUBCHEM_CACTVS_HBOND_ACCEPTOR>
5

> <PUBCHEM_CACTVS_HBOND_DONOR>
2

> <PUBCHEM_CACTVS_ROTATABLE_BOND>
3

> <PUBCHEM_CACTVS_SUBSKEYS>
AAADceB/uAAAAAAAAAAAAAAAAAAAAWLFgAA0YMGCBYAAAFix/gAAHgAQCAAADDzhngYywPPMFgCoAyVyVACCgCQlEiAI2KE4fNkLdvLA1ZGfcQhmxgHa2Yf+2fOeyAACQAASACCQAASAACQAQAAAAAAAAA==

> <PUBCHEM_IUPAC_OPENEYE_NAME>
N-[(2R,3S,4S,6S,18R)-18-hydroxy-3-methoxy-2-methyl-16-oxo-29-oxa-1,7,17-triazaoctacyclo[12.12.2.12,6.07,28.08,13.015,19.020,27.021,26]nonacosa-8,10,12,14,19,21,23,25,27-nonaen-4-yl]-N-methyl-benzamide

> <PUBCHEM_IUPAC_CAS_NAME>
N-[(2R,3S,4S,6S,18R)-18-hydroxy-3-methoxy-2-methyl-16-oxo-29-oxa-1,7,17-triazaoctacyclo[12.12.2.12,6.07,28.08,13.015,19.020,27.021,26]nonacosa-8,10,12,14,19,21,23,25,27-nonaen-4-yl]-N-methylbenzamide

> <PUBCHEM_IUPAC_NAME_MARKUP>
<I>N</I>-[(2<I>R</I>,3<I>S</I>,4<I>S</I>,6<I>S</I>,18<I>R</I>)-18-hydroxy-3-methoxy-2-methyl-16-oxo-29-oxa-1,7,17-triazaoctacyclo[12.12.2.1<SUP>2,6</SUP>.0<SUP>7,28</SUP>.0<SUP>8,13</SUP>.0<SUP>15,19</SUP>.0<SUP>20,27</SUP>.0<SUP>21,26</SUP>]nonacosa-8,10,12,14,19,21,23,25,27-nonaen-4-yl]-<I>N</I>-methylbenzamide

> <PUBCHEM_IUPAC_NAME>
N-[(2R,3S,4S,6S,18R)-18-hydroxy-3-methoxy-2-methyl-16-oxo-29-oxa-1,7,17-triazaoctacyclo[12.12.2.12,6.07,28.08,13.015,19.020,27.021,26]nonacosa-8,10,12,14,19,21,23,25,27-nonaen-4-yl]-N-methylbenzamide

> <PUBCHEM_IUPAC_SYSTEMATIC_NAME>
N-[(2R,3S,4S,6S,18R)-3-methoxy-2-methyl-18-oxidanyl-16-oxidanylidene-29-oxa-1,7,17-triazaoctacyclo[12.12.2.12,6.07,28.08,13.015,19.020,27.021,26]nonacosa-8,10,12,14,19,21,23,25,27-nonaen-4-yl]-N-methyl-benzamide

> <PUBCHEM_IUPAC_TRADITIONAL_NAME>
N-[(2R,3S,4S,6S,18R)-18-hydroxy-16-keto-3-methoxy-2-methyl-29-oxa-1,7,17-triazaoctacyclo[12.12.2.12,6.07,28.08,13.015,19.020,27.021,26]nonacosa-8,10,12,14,19,21,23,25,27-nonaen-4-yl]-N-methyl-benzamide

> <PUBCHEM_IUPAC_INCHI>
InChI=1S/C35H30N4O5/c1-35-31(43-3)23(37(2)34(42)18-11-5-4-6-12-18)17-24(44-35)38-21-15-9-7-13-19(21)25-27-28(33(41)36-32(27)40)26-20-14-8-10-16-22(20)39(35)30(26)29(25)38/h4-16,23-24,31,33,41H,17H2,1-3H3,(H,36,40)/t23-,24-,31-,33+,35+/m0/s1

> <PUBCHEM_IUPAC_INCHIKEY>
ZZSBPGIGIUFJRA-ZHBNBWILSA-N

> <PUBCHEM_XLOGP3_AA>
4.3

> <PUBCHEM_EXACT_MASS>
586.22162007

> <PUBCHEM_MOLECULAR_FORMULA>
C35H30N4O5

> <PUBCHEM_MOLECULAR_WEIGHT>
586.6

> <PUBCHEM_SMILES>
C[C@]12[C@H]([C@H](C[C@H](O1)N3C4=CC=CC=C4C5=C6C(=C7C8=CC=CC=C8N2C7=C53)[C@H](NC6=O)O)N(C)C(=O)C9=CC=CC=C9)OC

> <PUBCHEM_OPENEYE_CAN_SMILES>
CC12C(C(CC(O1)N3C4=CC=CC=C4C5=C6C(=C7C8=CC=CC=C8N2C7=C53)C(NC6=O)O)N(C)C(=O)C9=CC=CC=C9)OC

> <PUBCHEM_OPENEYE_ISO_SMILES>
C[C@]12[C@H]([C@H](C[C@H](O1)N3C4=CC=CC=C4C5=C6C(=C7C8=CC=CC=C8N2C7=C53)[C@H](NC6=O)O)N(C)C(=O)C9=CC=CC=C9)OC

> <PUBCHEM_CACTVS_TPSA>
98

> <PUBCHEM_MONOISOTOPIC_WEIGHT>
586.22162007

> <PUBCHEM_TOTAL_CHARGE>
0

> <PUBCHEM_HEAVY_ATOM_COUNT>
44

> <PUBCHEM_ATOM_DEF_STEREO_COUNT>
5

> <PUBCHEM_ATOM_UDEF_STEREO_COUNT>
0

> <PUBCHEM_BOND_DEF_STEREO_COUNT>
0

> <PUBCHEM_BOND_UDEF_STEREO_COUNT>
0

> <PUBCHEM_ISOTOPIC_ATOM_COUNT>
0

> <PUBCHEM_COMPONENT_COUNT>
1

> <PUBCHEM_CACTVS_TAUTO_COUNT>
-1

> <PUBCHEM_COORDINATE_TYPE>
1
5
255

> <PUBCHEM_BONDANNOTATIONS>
10  20  5
12  46  6
15  16  8
15  17  8
16  18  8
17  22  8
17  23  8
18  24  8
18  25  8
19  23  8
19  27  8
11  2  6
21  25  8
21  30  8
22  24  8
23  29  8
25  32  8
27  35  8
29  36  8
26  3  5
30  37  8
32  38  8
35  36  8
37  38  8
39  40  8
39  41  8
40  42  8
41  43  8
42  44  8
43  44  8
6  15  8
6  19  8
7  16  8
7  21  8
13  8  6

$$$$
