18732328
  -OEChem-03202506222D

 28 30  0     0  0  0  0  0  0999 V2000
    9.3191    2.1276    0.0000 Br  0  0  0  0  0  0  0  0  0  0  0  0
    2.8660   -2.1276    0.0000 O   0  0  0  0  0  0  0  0  0  0  0  0
    8.0622   -0.1276    0.0000 N   0  0  0  0  0  0  0  0  0  0  0  0
    7.1962    1.3724    0.0000 N   0  0  0  0  0  0  0  0  0  0  0  0
    9.0084   -0.4324    0.0000 N   0  0  0  0  0  0  0  0  0  0  0  0
    6.3301   -0.1276    0.0000 C   0  0  0  0  0  0  0  0  0  0  0  0
    5.4641   -0.6276    0.0000 C   0  0  0  0  0  0  0  0  0  0  0  0
    7.1962   -0.6276    0.0000 C   0  0  0  0  0  0  0  0  0  0  0  0
    8.0622    0.8724    0.0000 C   0  0  0  0  0  0  0  0  0  0  0  0
    6.3301    0.8724    0.0000 C   0  0  0  0  0  0  0  0  0  0  0  0
    5.4641   -1.6276    0.0000 C   0  0  0  0  0  0  0  0  0  0  0  0
    4.5981   -0.1276    0.0000 C   0  0  0  0  0  0  0  0  0  0  0  0
    9.0084    1.1771    0.0000 C   0  0  0  0  0  0  0  0  0  0  0  0
    4.5981   -2.1276    0.0000 C   0  0  0  0  0  0  0  0  0  0  0  0
    3.7320   -0.6276    0.0000 C   0  0  0  0  0  0  0  0  0  0  0  0
    3.7320   -1.6276    0.0000 C   0  0  0  0  0  0  0  0  0  0  0  0
    9.5920    0.3724    0.0000 C   0  0  0  0  0  0  0  0  0  0  0  0
    2.0000   -1.6276    0.0000 C   0  0  0  0  0  0  0  0  0  0  0  0
    7.1962   -1.2476    0.0000 H   0  0  0  0  0  0  0  0  0  0  0  0
    5.7932    1.1824    0.0000 H   0  0  0  0  0  0  0  0  0  0  0  0
    6.0010   -1.9376    0.0000 H   0  0  0  0  0  0  0  0  0  0  0  0
    4.5981    0.4924    0.0000 H   0  0  0  0  0  0  0  0  0  0  0  0
    4.5981   -2.7476    0.0000 H   0  0  0  0  0  0  0  0  0  0  0  0
    3.1951   -0.3176    0.0000 H   0  0  0  0  0  0  0  0  0  0  0  0
   10.2120    0.3724    0.0000 H   0  0  0  0  0  0  0  0  0  0  0  0
    2.3100   -1.0907    0.0000 H   0  0  0  0  0  0  0  0  0  0  0  0
    1.4631   -1.3176    0.0000 H   0  0  0  0  0  0  0  0  0  0  0  0
    1.6900   -2.1646    0.0000 H   0  0  0  0  0  0  0  0  0  0  0  0
  1 13  1  0  0  0  0
  2 16  1  0  0  0  0
  2 18  1  0  0  0  0
  3  5  1  0  0  0  0
  3  8  1  0  0  0  0
  3  9  1  0  0  0  0
  4  9  1  0  0  0  0
  4 10  2  0  0  0  0
  5 17  2  0  0  0  0
  6  7  1  0  0  0  0
  6  8  2  0  0  0  0
  6 10  1  0  0  0  0
  7 11  2  0  0  0  0
  7 12  1  0  0  0  0
  8 19  1  0  0  0  0
  9 13  2  0  0  0  0
 10 20  1  0  0  0  0
 11 14  1  0  0  0  0
 11 21  1  0  0  0  0
 12 15  2  0  0  0  0
 12 22  1  0  0  0  0
 13 17  1  0  0  0  0
 14 16  2  0  0  0  0
 14 23  1  0  0  0  0
 15 16  1  0  0  0  0
 15 24  1  0  0  0  0
 17 25  1  0  0  0  0
 18 26  1  0  0  0  0
 18 27  1  0  0  0  0
 18 28  1  0  0  0  0
M  END
> <PUBCHEM_COMPOUND_CID>
18732328

> <PUBCHEM_COMPOUND_CANONICALIZED>
1

> <PUBCHEM_CACTVS_COMPLEXITY>
283

> <PUBCHEM_CACTVS_HBOND_ACCEPTOR>
3

> <PUBCHEM_CACTVS_HBOND_DONOR>
0

> <PUBCHEM_CACTVS_ROTATABLE_BOND>
2

> <PUBCHEM_CACTVS_SUBSKEYS>
AAADccBzIAAAEAAAAAAAAAAAAAAAAWAAAAA8QAAAAAAAAFgB8AAAHgBIAAABrATBmwY/tp4IFACiAjJnZACSjCsxoKAd2CAuTJiMLuLE+VuEtCgsyBPI6CeQwNAOoAAAAAAAAABAAAAAAAAAAAAAAAAAAA==

> <PUBCHEM_IUPAC_OPENEYE_NAME>
3-bromo-6-(4-methoxyphenyl)pyrazolo[1,5-a]pyrimidine

> <PUBCHEM_IUPAC_CAS_NAME>
3-bromo-6-(4-methoxyphenyl)pyrazolo[1,5-a]pyrimidine

> <PUBCHEM_IUPAC_NAME_MARKUP>
3-bromo-6-(4-methoxyphenyl)pyrazolo[1,5-a]pyrimidine

> <PUBCHEM_IUPAC_NAME>
3-bromo-6-(4-methoxyphenyl)pyrazolo[1,5-a]pyrimidine

> <PUBCHEM_IUPAC_SYSTEMATIC_NAME>
3-bromanyl-6-(4-methoxyphenyl)pyrazolo[1,5-a]pyrimidine

> <PUBCHEM_IUPAC_TRADITIONAL_NAME>
3-bromo-6-(4-methoxyphenyl)pyrazolo[1,5-a]pyrimidine

> <PUBCHEM_IUPAC_INCHI>
InChI=1S/C13H10BrN3O/c1-18-11-4-2-9(3-5-11)10-6-15-13-12(14)7-16-17(13)8-10/h2-8H,1H3

> <PUBCHEM_IUPAC_INCHIKEY>
PEXKNSGOEOREKM-UHFFFAOYSA-N

> <PUBCHEM_XLOGP3_AA>
2.6

> <PUBCHEM_EXACT_MASS>
303.00072

> <PUBCHEM_MOLECULAR_FORMULA>
C13H10BrN3O

> <PUBCHEM_MOLECULAR_WEIGHT>
304.14

> <PUBCHEM_SMILES>
COC1=CC=C(C=C1)C2=CN3C(=C(C=N3)Br)N=C2

> <PUBCHEM_OPENEYE_CAN_SMILES>
COC1=CC=C(C=C1)C2=CN3C(=C(C=N3)Br)N=C2

> <PUBCHEM_OPENEYE_ISO_SMILES>
COC1=CC=C(C=C1)C2=CN3C(=C(C=N3)Br)N=C2

> <PUBCHEM_CACTVS_TPSA>
39.4

> <PUBCHEM_MONOISOTOPIC_WEIGHT>
303.00072

> <PUBCHEM_TOTAL_CHARGE>
0

> <PUBCHEM_HEAVY_ATOM_COUNT>
18

> <PUBCHEM_ATOM_DEF_STEREO_COUNT>
0

> <PUBCHEM_ATOM_UDEF_STEREO_COUNT>
0

> <PUBCHEM_BOND_DEF_STEREO_COUNT>
0

> <PUBCHEM_BOND_UDEF_STEREO_COUNT>
0

> <PUBCHEM_ISOTOPIC_ATOM_COUNT>
0

> <PUBCHEM_COMPONENT_COUNT>
1

> <PUBCHEM_CACTVS_TAUTO_COUNT>
-1

> <PUBCHEM_COORDINATE_TYPE>
1
5
255

> <PUBCHEM_BONDANNOTATIONS>
11  14  8
12  15  8
13  17  8
14  16  8
15  16  8
3  5  8
3  8  8
3  9  8
4  10  8
4  9  8
5  17  8
6  10  8
6  8  8
7  11  8
7  12  8
9  13  8

$$$$
