3071991
  -OEChem-03202501072D

 24 26  0     0  0  0  0  0  0999 V2000
    6.3961   -1.2673    0.0000 O   0  0  0  0  0  0  0  0  0  0  0  0
    2.0000    0.2568    0.0000 O   0  0  0  0  0  0  0  0  0  0  0  0
    4.6641   -0.2673    0.0000 N   0  0  0  0  0  0  0  0  0  0  0  0
    3.7702   -1.8020    0.0000 N   0  0  0  0  0  0  0  0  0  0  0  0
    2.8641   -1.2881    0.0000 N   0  0  0  0  0  0  0  0  0  0  0  0
    5.5301    0.2327    0.0000 C   0  0  0  0  0  0  0  0  0  0  0  0
    4.6641   -1.2673    0.0000 C   0  0  0  0  0  0  0  0  0  0  0  0
    3.7702    0.2674    0.0000 C   0  0  0  0  0  0  0  0  0  0  0  0
    5.5301   -1.7673    0.0000 C   0  0  0  0  0  0  0  0  0  0  0  0
    6.3961   -0.2673    0.0000 C   0  0  0  0  0  0  0  0  0  0  0  0
    2.8641   -0.2465    0.0000 C   0  0  0  0  0  0  0  0  0  0  0  0
    5.5141    1.2742    0.0000 C   0  0  0  0  0  0  0  0  0  0  0  0
    7.3062    0.2395    0.0000 C   0  0  0  0  0  0  0  0  0  0  0  0
    6.4121    1.8020    0.0000 C   0  0  0  0  0  0  0  0  0  0  0  0
    7.3142    1.2812    0.0000 C   0  0  0  0  0  0  0  0  0  0  0  0
    4.1748    0.7371    0.0000 H   0  0  0  0  0  0  0  0  0  0  0  0
    3.3765    0.7464    0.0000 H   0  0  0  0  0  0  0  0  0  0  0  0
    5.1316   -2.2422    0.0000 H   0  0  0  0  0  0  0  0  0  0  0  0
    5.9286   -2.2422    0.0000 H   0  0  0  0  0  0  0  0  0  0  0  0
    4.9736    1.5780    0.0000 H   0  0  0  0  0  0  0  0  0  0  0  0
    7.8395   -0.0766    0.0000 H   0  0  0  0  0  0  0  0  0  0  0  0
    2.3284   -1.6002    0.0000 H   0  0  0  0  0  0  0  0  0  0  0  0
    6.4097    2.4220    0.0000 H   0  0  0  0  0  0  0  0  0  0  0  0
    7.8523    1.5891    0.0000 H   0  0  0  0  0  0  0  0  0  0  0  0
  1  9  1  0  0  0  0
  1 10  1  0  0  0  0
  2 11  2  0  0  0  0
  3  6  1  0  0  0  0
  3  7  1  0  0  0  0
  3  8  1  0  0  0  0
  4  5  1  0  0  0  0
  4  7  2  0  0  0  0
  5 11  1  0  0  0  0
  5 22  1  0  0  0  0
  6 10  1  0  0  0  0
  6 12  2  0  0  0  0
  7  9  1  0  0  0  0
  8 11  1  0  0  0  0
  8 16  1  0  0  0  0
  8 17  1  0  0  0  0
  9 18  1  0  0  0  0
  9 19  1  0  0  0  0
 10 13  2  0  0  0  0
 12 14  1  0  0  0  0
 12 20  1  0  0  0  0
 13 15  1  0  0  0  0
 13 21  1  0  0  0  0
 14 15  2  0  0  0  0
 14 23  1  0  0  0  0
 15 24  1  0  0  0  0
M  END
> <PUBCHEM_COMPOUND_CID>
3071991

> <PUBCHEM_COMPOUND_CANONICALIZED>
1

> <PUBCHEM_CACTVS_COMPLEXITY>
316

> <PUBCHEM_CACTVS_HBOND_ACCEPTOR>
3

> <PUBCHEM_CACTVS_HBOND_DONOR>
1

> <PUBCHEM_CACTVS_ROTATABLE_BOND>
0

> <PUBCHEM_CACTVS_SUBSKEYS>
AAADccBzMAAAAAAAAAAAAAAAAAAAAAAAAAA8QIAAAAAAAACxAAAAHgAYAAAACAzhkAYxxoNiBACoACdycASSCAAhIgAbiACfbIgOZiLEubuXOCjk2BHY6AeQQAAAAAAAAAAAEAAAAAAAAAAgAAAAAAAAAA==

> <PUBCHEM_IUPAC_OPENEYE_NAME>
3,5-dihydro-1H-[1,2,4]triazino[3,4-c][1,4]benzoxazin-2-one

> <PUBCHEM_IUPAC_CAS_NAME>
3,5-dihydro-1H-[1,2,4]triazino[3,4-c][1,4]benzoxazin-2-one

> <PUBCHEM_IUPAC_NAME_MARKUP>
3,5-dihydro-1<I>H</I>-[1,2,4]triazino[3,4-c][1,4]benzoxazin-2-one

> <PUBCHEM_IUPAC_NAME>
3,5-dihydro-1H-[1,2,4]triazino[3,4-c][1,4]benzoxazin-2-one

> <PUBCHEM_IUPAC_SYSTEMATIC_NAME>
3,5-dihydro-1H-[1,2,4]triazino[3,4-c][1,4]benzoxazin-2-one

> <PUBCHEM_IUPAC_TRADITIONAL_NAME>
3,5-dihydro-1H-[1,2,4]triazino[3,4-c][1,4]benzoxazin-2-one

> <PUBCHEM_IUPAC_INCHI>
InChI=1S/C10H9N3O2/c14-10-5-13-7-3-1-2-4-8(7)15-6-9(13)11-12-10/h1-4H,5-6H2,(H,12,14)

> <PUBCHEM_IUPAC_INCHIKEY>
PNPBXXNNLJGHBP-UHFFFAOYSA-N

> <PUBCHEM_XLOGP3_AA>
0.4

> <PUBCHEM_EXACT_MASS>
203.069476538

> <PUBCHEM_MOLECULAR_FORMULA>
C10H9N3O2

> <PUBCHEM_MOLECULAR_WEIGHT>
203.20

> <PUBCHEM_SMILES>
C1C(=O)NN=C2N1C3=CC=CC=C3OC2

> <PUBCHEM_OPENEYE_CAN_SMILES>
C1C(=O)NN=C2N1C3=CC=CC=C3OC2

> <PUBCHEM_OPENEYE_ISO_SMILES>
C1C(=O)NN=C2N1C3=CC=CC=C3OC2

> <PUBCHEM_CACTVS_TPSA>
53.9

> <PUBCHEM_MONOISOTOPIC_WEIGHT>
203.069476538

> <PUBCHEM_TOTAL_CHARGE>
0

> <PUBCHEM_HEAVY_ATOM_COUNT>
15

> <PUBCHEM_ATOM_DEF_STEREO_COUNT>
0

> <PUBCHEM_ATOM_UDEF_STEREO_COUNT>
0

> <PUBCHEM_BOND_DEF_STEREO_COUNT>
0

> <PUBCHEM_BOND_UDEF_STEREO_COUNT>
0

> <PUBCHEM_ISOTOPIC_ATOM_COUNT>
0

> <PUBCHEM_COMPONENT_COUNT>
1

> <PUBCHEM_CACTVS_TAUTO_COUNT>
-1

> <PUBCHEM_COORDINATE_TYPE>
1
5
255

> <PUBCHEM_BONDANNOTATIONS>
10  13  8
12  14  8
13  15  8
14  15  8
6  10  8
6  12  8

$$$$
