42629114
  -OEChem-03202506512D

 49 53  0     0  0  0  0  0  0999 V2000
    4.8025   -0.1213    0.0000 S   0  0  0  0  0  0  0  0  0  0  0  0
    6.1874   -1.2428    0.0000 O   0  0  0  0  0  0  0  0  0  0  0  0
   11.0789    1.3695    0.0000 O   0  0  0  0  0  0  0  0  0  0  0  0
    9.8362   -2.4326    0.0000 N   0  0  0  0  0  0  0  0  0  0  0  0
    9.8362   -4.0421    0.0000 N   0  0  0  0  0  0  0  0  0  0  0  0
    5.3784   -2.6441    0.0000 N   0  0  0  0  0  0  0  0  0  0  0  0
    4.7092   -1.9009    0.0000 N   0  0  0  0  0  0  0  0  0  0  0  0
    4.7579    4.2373    0.0000 N   0  0  0  0  0  0  0  0  0  0  0  0
    8.8900   -2.7373    0.0000 C   0  0  0  0  0  0  0  0  0  0  0  0
    8.8900   -3.7373    0.0000 C   0  0  0  0  0  0  0  0  0  0  0  0
   10.1469   -1.4821    0.0000 C   0  0  0  0  0  0  0  0  0  0  0  0
    8.0240   -2.2373    0.0000 C   0  0  0  0  0  0  0  0  0  0  0  0
    7.1580   -2.7373    0.0000 C   0  0  0  0  0  0  0  0  0  0  0  0
   10.4198   -3.2373    0.0000 C   0  0  0  0  0  0  0  0  0  0  0  0
    8.0240   -4.2373    0.0000 C   0  0  0  0  0  0  0  0  0  0  0  0
    7.1580   -3.7373    0.0000 C   0  0  0  0  0  0  0  0  0  0  0  0
    9.4790   -0.7378    0.0000 C   0  0  0  0  0  0  0  0  0  0  0  0
   11.1254   -1.2758    0.0000 C   0  0  0  0  0  0  0  0  0  0  0  0
    6.2919   -2.2373    0.0000 C   0  0  0  0  0  0  0  0  0  0  0  0
    9.7897    0.2128    0.0000 C   0  0  0  0  0  0  0  0  0  0  0  0
   11.4361   -0.3253    0.0000 C   0  0  0  0  0  0  0  0  0  0  0  0
   10.7682    0.4190    0.0000 C   0  0  0  0  0  0  0  0  0  0  0  0
    3.8080   -0.0168    0.0000 C   0  0  0  0  0  0  0  0  0  0  0  0
    3.4013    0.8967    0.0000 C   0  0  0  0  0  0  0  0  0  0  0  0
    5.2092   -1.0349    0.0000 C   0  0  0  0  0  0  0  0  0  0  0  0
    3.9890    1.7058    0.0000 C   0  0  0  0  0  0  0  0  0  0  0  0
    2.4067    1.0013    0.0000 C   0  0  0  0  0  0  0  0  0  0  0  0
    3.5823    2.6193    0.0000 C   0  0  0  0  0  0  0  0  0  0  0  0
    2.0000    1.9148    0.0000 C   0  0  0  0  0  0  0  0  0  0  0  0
    2.5878    2.7238    0.0000 C   0  0  0  0  0  0  0  0  0  0  0  0
   12.0574    1.5757    0.0000 C   0  0  0  0  0  0  0  0  0  0  0  0
    4.1701    3.4283    0.0000 C   0  0  0  0  0  0  0  0  0  0  0  0
    8.0240   -1.6173    0.0000 H   0  0  0  0  0  0  0  0  0  0  0  0
   11.0398   -3.2373    0.0000 H   0  0  0  0  0  0  0  0  0  0  0  0
    8.0240   -4.8573    0.0000 H   0  0  0  0  0  0  0  0  0  0  0  0
    6.6210   -4.0473    0.0000 H   0  0  0  0  0  0  0  0  0  0  0  0
    8.8724   -0.8656    0.0000 H   0  0  0  0  0  0  0  0  0  0  0  0
   11.5395   -1.7373    0.0000 H   0  0  0  0  0  0  0  0  0  0  0  0
    9.3756    0.6742    0.0000 H   0  0  0  0  0  0  0  0  0  0  0  0
   12.0427   -0.1975    0.0000 H   0  0  0  0  0  0  0  0  0  0  0  0
    3.2064   -0.1668    0.0000 H   0  0  0  0  0  0  0  0  0  0  0  0
    3.8512   -0.6353    0.0000 H   0  0  0  0  0  0  0  0  0  0  0  0
    4.6056    1.6409    0.0000 H   0  0  0  0  0  0  0  0  0  0  0  0
    2.0423    0.4997    0.0000 H   0  0  0  0  0  0  0  0  0  0  0  0
    1.3834    1.9796    0.0000 H   0  0  0  0  0  0  0  0  0  0  0  0
    2.3356    3.2902    0.0000 H   0  0  0  0  0  0  0  0  0  0  0  0
   12.1852    0.9690    0.0000 H   0  0  0  0  0  0  0  0  0  0  0  0
   12.6641    1.7036    0.0000 H   0  0  0  0  0  0  0  0  0  0  0  0
   11.9295    2.1824    0.0000 H   0  0  0  0  0  0  0  0  0  0  0  0
  1 23  1  0  0  0  0
  1 25  1  0  0  0  0
  2 19  1  0  0  0  0
  2 25  1  0  0  0  0
  3 22  1  0  0  0  0
  3 31  1  0  0  0  0
  4  9  1  0  0  0  0
  4 11  1  0  0  0  0
  4 14  1  0  0  0  0
  5 10  1  0  0  0  0
  5 14  2  0  0  0  0
  6  7  1  0  0  0  0
  6 19  2  0  0  0  0
  7 25  2  0  0  0  0
  8 32  3  0  0  0  0
  9 10  2  0  0  0  0
  9 12  1  0  0  0  0
 10 15  1  0  0  0  0
 11 17  2  0  0  0  0
 11 18  1  0  0  0  0
 12 13  2  0  0  0  0
 12 33  1  0  0  0  0
 13 16  1  0  0  0  0
 13 19  1  0  0  0  0
 14 34  1  0  0  0  0
 15 16  2  0  0  0  0
 15 35  1  0  0  0  0
 16 36  1  0  0  0  0
 17 20  1  0  0  0  0
 17 37  1  0  0  0  0
 18 21  2  0  0  0  0
 18 38  1  0  0  0  0
 20 22  2  0  0  0  0
 20 39  1  0  0  0  0
 21 22  1  0  0  0  0
 21 40  1  0  0  0  0
 23 24  1  0  0  0  0
 23 41  1  0  0  0  0
 23 42  1  0  0  0  0
 24 26  2  0  0  0  0
 24 27  1  0  0  0  0
 26 28  1  0  0  0  0
 26 43  1  0  0  0  0
 27 29  2  0  0  0  0
 27 44  1  0  0  0  0
 28 30  2  0  0  0  0
 28 32  1  0  0  0  0
 29 30  1  0  0  0  0
 29 45  1  0  0  0  0
 30 46  1  0  0  0  0
 31 47  1  0  0  0  0
 31 48  1  0  0  0  0
 31 49  1  0  0  0  0
M  END
> <PUBCHEM_COMPOUND_CID>
42629114

> <PUBCHEM_COMPOUND_CANONICALIZED>
1

> <PUBCHEM_CACTVS_COMPLEXITY>
666

> <PUBCHEM_CACTVS_HBOND_ACCEPTOR>
7

> <PUBCHEM_CACTVS_HBOND_DONOR>
0

> <PUBCHEM_CACTVS_ROTATABLE_BOND>
6

> <PUBCHEM_CACTVS_SUBSKEYS>
AAADceB7sABAAAAAAAAAAAAAAAAAAWLAAAAwYMAAAAAAAFgB/AAAHgQIAAAADAyF3ga31rcMFEi6ByVzdACyiC19MrAb2CE+fNiM7vLkvZucMShsyBPI6a+82WOeCEACQAAAACAQgASAAAAAQAAAAAAAAA==

> <PUBCHEM_IUPAC_OPENEYE_NAME>
3-[[5-[3-(4-methoxyphenyl)benzimidazol-5-yl]-1,3,4-oxadiazol-2-yl]sulfanylmethyl]benzonitrile

> <PUBCHEM_IUPAC_CAS_NAME>
3-[[[5-[3-(4-methoxyphenyl)-5-benzimidazolyl]-1,3,4-oxadiazol-2-yl]thio]methyl]benzonitrile

> <PUBCHEM_IUPAC_NAME_MARKUP>
3-[[5-[3-(4-methoxyphenyl)benzimidazol-5-yl]-1,3,4-oxadiazol-2-yl]sulfanylmethyl]benzonitrile

> <PUBCHEM_IUPAC_NAME>
3-[[5-[3-(4-methoxyphenyl)benzimidazol-5-yl]-1,3,4-oxadiazol-2-yl]sulfanylmethyl]benzonitrile

> <PUBCHEM_IUPAC_SYSTEMATIC_NAME>
3-[[5-[3-(4-methoxyphenyl)benzimidazol-5-yl]-1,3,4-oxadiazol-2-yl]sulfanylmethyl]benzenecarbonitrile

> <PUBCHEM_IUPAC_TRADITIONAL_NAME>
3-[[[5-[3-(4-methoxyphenyl)benzimidazol-5-yl]-1,3,4-oxadiazol-2-yl]thio]methyl]benzonitrile

> <PUBCHEM_IUPAC_INCHI>
InChI=1S/C24H17N5O2S/c1-30-20-8-6-19(7-9-20)29-15-26-21-10-5-18(12-22(21)29)23-27-28-24(31-23)32-14-17-4-2-3-16(11-17)13-25/h2-12,15H,14H2,1H3

> <PUBCHEM_IUPAC_INCHIKEY>
XUEHEOHRTKKVET-UHFFFAOYSA-N

> <PUBCHEM_XLOGP3_AA>
4.6

> <PUBCHEM_EXACT_MASS>
439.11029598

> <PUBCHEM_MOLECULAR_FORMULA>
C24H17N5O2S

> <PUBCHEM_MOLECULAR_WEIGHT>
439.5

> <PUBCHEM_SMILES>
COC1=CC=C(C=C1)N2C=NC3=C2C=C(C=C3)C4=NN=C(O4)SCC5=CC(=CC=C5)C#N

> <PUBCHEM_OPENEYE_CAN_SMILES>
COC1=CC=C(C=C1)N2C=NC3=C2C=C(C=C3)C4=NN=C(O4)SCC5=CC(=CC=C5)C#N

> <PUBCHEM_OPENEYE_ISO_SMILES>
COC1=CC=C(C=C1)N2C=NC3=C2C=C(C=C3)C4=NN=C(O4)SCC5=CC(=CC=C5)C#N

> <PUBCHEM_CACTVS_TPSA>
115

> <PUBCHEM_MONOISOTOPIC_WEIGHT>
439.11029598

> <PUBCHEM_TOTAL_CHARGE>
0

> <PUBCHEM_HEAVY_ATOM_COUNT>
32

> <PUBCHEM_ATOM_DEF_STEREO_COUNT>
0

> <PUBCHEM_ATOM_UDEF_STEREO_COUNT>
0

> <PUBCHEM_BOND_DEF_STEREO_COUNT>
0

> <PUBCHEM_BOND_UDEF_STEREO_COUNT>
0

> <PUBCHEM_ISOTOPIC_ATOM_COUNT>
0

> <PUBCHEM_COMPONENT_COUNT>
1

> <PUBCHEM_CACTVS_TAUTO_COUNT>
-1

> <PUBCHEM_COORDINATE_TYPE>
1
5
255

> <PUBCHEM_BONDANNOTATIONS>
10  15  8
11  17  8
11  18  8
12  13  8
13  16  8
15  16  8
17  20  8
18  21  8
2  19  8
2  25  8
20  22  8
21  22  8
24  26  8
24  27  8
26  28  8
27  29  8
28  30  8
29  30  8
4  14  8
4  9  8
5  10  8
5  14  8
6  19  8
6  7  8
7  25  8
9  10  8
9  12  8

$$$$
