24905344
  -OEChem-03192523372D

 38 40  0     0  0  0  0  0  0999 V2000
    7.5673    3.2202    0.0000 O   0  0  0  0  0  0  0  0  0  0  0  0
    4.6783   -1.6532    0.0000 N   0  0  0  0  0  0  0  0  0  0  0  0
    5.2619   -0.8485    0.0000 N   0  0  0  0  0  0  0  0  0  0  0  0
    2.8660   -1.8485    0.0000 N   0  0  0  0  0  0  0  0  0  0  0  0
    2.0000   -0.3485    0.0000 N   0  0  0  0  0  0  0  0  0  0  0  0
    2.8660    1.1515    0.0000 N   0  0  0  0  0  0  0  0  0  0  0  0
    4.9889   -2.6038    0.0000 C   0  0  0  0  0  0  0  0  0  0  0  0
    3.7320   -1.3485    0.0000 C   0  0  0  0  0  0  0  0  0  0  0  0
    3.7320   -0.3485    0.0000 C   0  0  0  0  0  0  0  0  0  0  0  0
    4.6783   -0.0438    0.0000 C   0  0  0  0  0  0  0  0  0  0  0  0
    4.9889    0.9067    0.0000 C   0  0  0  0  0  0  0  0  0  0  0  0
    5.9674   -2.8100    0.0000 C   0  0  0  0  0  0  0  0  0  0  0  0
    4.3211   -3.3481    0.0000 C   0  0  0  0  0  0  0  0  0  0  0  0
    2.8660    0.1515    0.0000 C   0  0  0  0  0  0  0  0  0  0  0  0
    5.9674    1.1130    0.0000 C   0  0  0  0  0  0  0  0  0  0  0  0
    4.3211    1.6510    0.0000 C   0  0  0  0  0  0  0  0  0  0  0  0
    6.2781    2.0635    0.0000 C   0  0  0  0  0  0  0  0  0  0  0  0
    4.6318    2.6016    0.0000 C   0  0  0  0  0  0  0  0  0  0  0  0
    2.0000   -1.3485    0.0000 C   0  0  0  0  0  0  0  0  0  0  0  0
    5.6103    2.8078    0.0000 C   0  0  0  0  0  0  0  0  0  0  0  0
    7.2566    2.2697    0.0000 C   0  0  0  0  0  0  0  0  0  0  0  0
    5.1815   -3.1931    0.0000 H   0  0  0  0  0  0  0  0  0  0  0  0
    5.8396   -3.4167    0.0000 H   0  0  0  0  0  0  0  0  0  0  0  0
    6.5741   -2.9378    0.0000 H   0  0  0  0  0  0  0  0  0  0  0  0
    6.0953   -2.2033    0.0000 H   0  0  0  0  0  0  0  0  0  0  0  0
    3.8596   -2.9340    0.0000 H   0  0  0  0  0  0  0  0  0  0  0  0
    3.9070   -3.8095    0.0000 H   0  0  0  0  0  0  0  0  0  0  0  0
    4.7826   -3.7621    0.0000 H   0  0  0  0  0  0  0  0  0  0  0  0
    6.3815    0.6515    0.0000 H   0  0  0  0  0  0  0  0  0  0  0  0
    3.7144    1.5232    0.0000 H   0  0  0  0  0  0  0  0  0  0  0  0
    4.2177    3.0630    0.0000 H   0  0  0  0  0  0  0  0  0  0  0  0
    5.8029    3.3971    0.0000 H   0  0  0  0  0  0  0  0  0  0  0  0
    1.4631   -1.6585    0.0000 H   0  0  0  0  0  0  0  0  0  0  0  0
    7.2772    1.6500    0.0000 H   0  0  0  0  0  0  0  0  0  0  0  0
    7.8704    2.1823    0.0000 H   0  0  0  0  0  0  0  0  0  0  0  0
    2.3291    1.4615    0.0000 H   0  0  0  0  0  0  0  0  0  0  0  0
    3.4030    1.4615    0.0000 H   0  0  0  0  0  0  0  0  0  0  0  0
    8.1739    3.3481    0.0000 H   0  0  0  0  0  0  0  0  0  0  0  0
  1 21  1  0  0  0  0
  1 38  1  0  0  0  0
  2  3  1  0  0  0  0
  2  7  1  0  0  0  0
  2  8  1  0  0  0  0
  3 10  2  0  0  0  0
  4  8  2  0  0  0  0
  4 19  1  0  0  0  0
  5 14  1  0  0  0  0
  5 19  2  0  0  0  0
  6 14  1  0  0  0  0
  6 36  1  0  0  0  0
  6 37  1  0  0  0  0
  7 12  1  0  0  0  0
  7 13  1  0  0  0  0
  7 22  1  0  0  0  0
  8  9  1  0  0  0  0
  9 10  1  0  0  0  0
  9 14  2  0  0  0  0
 10 11  1  0  0  0  0
 11 15  1  0  0  0  0
 11 16  2  0  0  0  0
 12 23  1  0  0  0  0
 12 24  1  0  0  0  0
 12 25  1  0  0  0  0
 13 26  1  0  0  0  0
 13 27  1  0  0  0  0
 13 28  1  0  0  0  0
 15 17  2  0  0  0  0
 15 29  1  0  0  0  0
 16 18  1  0  0  0  0
 16 30  1  0  0  0  0
 17 20  1  0  0  0  0
 17 21  1  0  0  0  0
 18 20  2  0  0  0  0
 18 31  1  0  0  0  0
 19 33  1  0  0  0  0
 20 32  1  0  0  0  0
 21 34  1  0  0  0  0
 21 35  1  0  0  0  0
M  END
> <PUBCHEM_COMPOUND_CID>
24905344

> <PUBCHEM_COMPOUND_CANONICALIZED>
1

> <PUBCHEM_CACTVS_COMPLEXITY>
353

> <PUBCHEM_CACTVS_HBOND_ACCEPTOR>
5

> <PUBCHEM_CACTVS_HBOND_DONOR>
2

> <PUBCHEM_CACTVS_ROTATABLE_BOND>
3

> <PUBCHEM_CACTVS_SUBSKEYS>
AAADceBzoAAAAAAAAAAAAAAAAAAAAWAAAAA8QAAAAAAAAFgB/AAAHgAYCAAADCjhnwY3sN5IEgCiAyZjZACShCsxgKAd2CAoTJiIPqLA2dGE9AhsyAPI2CeQ0OEOAAACAAAAAAAAAAQAAAAAAAAAAAAAAA==

> <PUBCHEM_IUPAC_OPENEYE_NAME>
[3-(4-amino-1-isopropyl-pyrazolo[3,4-d]pyrimidin-3-yl)phenyl]methanol

> <PUBCHEM_IUPAC_CAS_NAME>
[3-(4-amino-1-propan-2-yl-3-pyrazolo[3,4-d]pyrimidinyl)phenyl]methanol

> <PUBCHEM_IUPAC_NAME_MARKUP>
[3-(4-amino-1-propan-2-ylpyrazolo[3,4-d]pyrimidin-3-yl)phenyl]methanol

> <PUBCHEM_IUPAC_NAME>
[3-(4-amino-1-propan-2-ylpyrazolo[3,4-d]pyrimidin-3-yl)phenyl]methanol

> <PUBCHEM_IUPAC_SYSTEMATIC_NAME>
[3-(4-azanyl-1-propan-2-yl-pyrazolo[3,4-d]pyrimidin-3-yl)phenyl]methanol

> <PUBCHEM_IUPAC_TRADITIONAL_NAME>
[3-(4-amino-1-isopropyl-pyrazolo[3,4-d]pyrimidin-3-yl)phenyl]methanol

> <PUBCHEM_IUPAC_INCHI>
InChI=1S/C15H17N5O/c1-9(2)20-15-12(14(16)17-8-18-15)13(19-20)11-5-3-4-10(6-11)7-21/h3-6,8-9,21H,7H2,1-2H3,(H2,16,17,18)

> <PUBCHEM_IUPAC_INCHIKEY>
ONSFTNRYQCNAAD-UHFFFAOYSA-N

> <PUBCHEM_XLOGP3_AA>
1.3

> <PUBCHEM_EXACT_MASS>
283.14331018

> <PUBCHEM_MOLECULAR_FORMULA>
C15H17N5O

> <PUBCHEM_MOLECULAR_WEIGHT>
283.33

> <PUBCHEM_SMILES>
CC(C)N1C2=NC=NC(=C2C(=N1)C3=CC=CC(=C3)CO)N

> <PUBCHEM_OPENEYE_CAN_SMILES>
CC(C)N1C2=NC=NC(=C2C(=N1)C3=CC=CC(=C3)CO)N

> <PUBCHEM_OPENEYE_ISO_SMILES>
CC(C)N1C2=NC=NC(=C2C(=N1)C3=CC=CC(=C3)CO)N

> <PUBCHEM_CACTVS_TPSA>
89.9

> <PUBCHEM_MONOISOTOPIC_WEIGHT>
283.14331018

> <PUBCHEM_TOTAL_CHARGE>
0

> <PUBCHEM_HEAVY_ATOM_COUNT>
21

> <PUBCHEM_ATOM_DEF_STEREO_COUNT>
0

> <PUBCHEM_ATOM_UDEF_STEREO_COUNT>
0

> <PUBCHEM_BOND_DEF_STEREO_COUNT>
0

> <PUBCHEM_BOND_UDEF_STEREO_COUNT>
0

> <PUBCHEM_ISOTOPIC_ATOM_COUNT>
0

> <PUBCHEM_COMPONENT_COUNT>
1

> <PUBCHEM_CACTVS_TAUTO_COUNT>
-1

> <PUBCHEM_COORDINATE_TYPE>
1
5
255

> <PUBCHEM_BONDANNOTATIONS>
11  15  8
11  16  8
15  17  8
16  18  8
17  20  8
18  20  8
2  3  8
2  8  8
3  10  8
4  19  8
4  8  8
5  14  8
5  19  8
8  9  8
9  10  8
9  14  8

$$$$
