44352395
  -OEChem-03202500112D

 58 61  0     1  0  0  0  0  0999 V2000
    4.5981    4.7694    0.0000 F   0  0  0  0  0  0  0  0  0  0  0  0
    3.5981    3.7694    0.0000 F   0  0  0  0  0  0  0  0  0  0  0  0
    5.5981    3.7694    0.0000 F   0  0  0  0  0  0  0  0  0  0  0  0
    7.1962   -1.7306    0.0000 O   0  0  0  0  0  0  0  0  0  0  0  0
   10.6603   -0.7306    0.0000 O   0  0  0  0  0  0  0  0  0  0  0  0
    4.5981    2.7694    0.0000 O   0  0  0  0  0  0  0  0  0  0  0  0
    8.9282   -0.7306    0.0000 N   0  0  0  0  0  0  0  0  0  0  0  0
    7.1391   -3.8184    0.0000 N   0  0  0  0  0  0  0  0  0  0  0  0
    5.8301   -4.7694    0.0000 N   0  0  0  0  0  0  0  0  0  0  0  0
   11.5263    1.7694    0.0000 N   0  0  0  0  0  0  0  0  0  0  0  0
    2.0000    0.2694    0.0000 N   0  0  0  0  0  0  0  0  0  0  0  0
    6.3301   -2.2306    0.0000 C   0  0  3  0  0  0  0  0  0  0  0  0
    8.0622   -0.2306    0.0000 C   0  0  0  0  0  0  0  0  0  0  0  0
    7.1962   -0.7306    0.0000 C   0  0  0  0  0  0  0  0  0  0  0  0
    6.3301   -3.2306    0.0000 C   0  0  0  0  0  0  0  0  0  0  0  0
    8.0622    0.7694    0.0000 C   0  0  0  0  0  0  0  0  0  0  0  0
    5.4641   -1.7306    0.0000 C   0  0  0  0  0  0  0  0  0  0  0  0
    7.1962    1.2694    0.0000 C   0  0  0  0  0  0  0  0  0  0  0  0
    8.9282    1.2694    0.0000 C   0  0  0  0  0  0  0  0  0  0  0  0
    9.7942   -0.2306    0.0000 C   0  0  0  0  0  0  0  0  0  0  0  0
    5.5211   -3.8184    0.0000 C   0  0  0  0  0  0  0  0  0  0  0  0
    9.7942    0.7694    0.0000 C   0  0  0  0  0  0  0  0  0  0  0  0
    5.4641   -0.7306    0.0000 C   0  0  0  0  0  0  0  0  0  0  0  0
    4.5981   -2.2306    0.0000 C   0  0  0  0  0  0  0  0  0  0  0  0
    8.9282   -1.7306    0.0000 C   0  0  0  0  0  0  0  0  0  0  0  0
    6.8301   -4.7694    0.0000 C   0  0  0  0  0  0  0  0  0  0  0  0
    8.0902   -3.5094    0.0000 C   0  0  0  0  0  0  0  0  0  0  0  0
    6.3301    0.7694    0.0000 C   0  0  0  0  0  0  0  0  0  0  0  0
    7.1962    2.2694    0.0000 C   0  0  0  0  0  0  0  0  0  0  0  0
    4.5981   -0.2306    0.0000 C   0  0  0  0  0  0  0  0  0  0  0  0
    3.7320   -1.7306    0.0000 C   0  0  0  0  0  0  0  0  0  0  0  0
    3.7320   -0.7306    0.0000 C   0  0  0  0  0  0  0  0  0  0  0  0
    5.4641    1.2694    0.0000 C   0  0  0  0  0  0  0  0  0  0  0  0
    6.3301    2.7694    0.0000 C   0  0  0  0  0  0  0  0  0  0  0  0
    5.4641    2.2694    0.0000 C   0  0  0  0  0  0  0  0  0  0  0  0
   10.6603    1.2694    0.0000 C   0  0  0  0  0  0  0  0  0  0  0  0
    2.8660   -0.2306    0.0000 C   0  0  0  0  0  0  0  0  0  0  0  0
    4.5981    3.7694    0.0000 C   0  0  0  0  0  0  0  0  0  0  0  0
    6.8671   -2.5406    0.0000 H   0  0  0  0  0  0  0  0  0  0  0  0
    6.9841   -0.1480    0.0000 H   0  0  0  0  0  0  0  0  0  0  0  0
    6.5856   -0.8382    0.0000 H   0  0  0  0  0  0  0  0  0  0  0  0
    8.9282    1.8894    0.0000 H   0  0  0  0  0  0  0  0  0  0  0  0
    4.9315   -3.6268    0.0000 H   0  0  0  0  0  0  0  0  0  0  0  0
    6.0010   -0.4206    0.0000 H   0  0  0  0  0  0  0  0  0  0  0  0
    4.5981   -2.8506    0.0000 H   0  0  0  0  0  0  0  0  0  0  0  0
    8.3082   -1.7306    0.0000 H   0  0  0  0  0  0  0  0  0  0  0  0
    8.9282   -2.3506    0.0000 H   0  0  0  0  0  0  0  0  0  0  0  0
    9.5482   -1.7306    0.0000 H   0  0  0  0  0  0  0  0  0  0  0  0
    7.1946   -5.2710    0.0000 H   0  0  0  0  0  0  0  0  0  0  0  0
    8.2818   -4.0990    0.0000 H   0  0  0  0  0  0  0  0  0  0  0  0
    8.6799   -3.3178    0.0000 H   0  0  0  0  0  0  0  0  0  0  0  0
    7.8986   -2.9197    0.0000 H   0  0  0  0  0  0  0  0  0  0  0  0
    6.3301    0.1494    0.0000 H   0  0  0  0  0  0  0  0  0  0  0  0
    7.7331    2.5794    0.0000 H   0  0  0  0  0  0  0  0  0  0  0  0
    4.5981    0.3894    0.0000 H   0  0  0  0  0  0  0  0  0  0  0  0
    3.1951   -2.0406    0.0000 H   0  0  0  0  0  0  0  0  0  0  0  0
    4.9272    0.9594    0.0000 H   0  0  0  0  0  0  0  0  0  0  0  0
    6.3301    3.3894    0.0000 H   0  0  0  0  0  0  0  0  0  0  0  0
  1 38  1  0  0  0  0
  2 38  1  0  0  0  0
  3 38  1  0  0  0  0
  4 12  1  0  0  0  0
  4 14  1  0  0  0  0
  5 20  2  0  0  0  0
  6 35  1  0  0  0  0
  6 38  1  0  0  0  0
  7 13  1  0  0  0  0
  7 20  1  0  0  0  0
  7 25  1  0  0  0  0
  8 15  1  0  0  0  0
  8 26  1  0  0  0  0
  8 27  1  0  0  0  0
  9 21  1  0  0  0  0
  9 26  2  0  0  0  0
 10 36  3  0  0  0  0
 11 37  3  0  0  0  0
 12 15  1  0  0  0  0
 12 17  1  0  0  0  0
 12 39  1  0  0  0  0
 13 14  1  0  0  0  0
 13 16  2  0  0  0  0
 14 40  1  0  0  0  0
 14 41  1  0  0  0  0
 15 21  2  0  0  0  0
 16 18  1  0  0  0  0
 16 19  1  0  0  0  0
 17 23  2  0  0  0  0
 17 24  1  0  0  0  0
 18 28  2  0  0  0  0
 18 29  1  0  0  0  0
 19 22  2  0  0  0  0
 19 42  1  0  0  0  0
 20 22  1  0  0  0  0
 21 43  1  0  0  0  0
 22 36  1  0  0  0  0
 23 30  1  0  0  0  0
 23 44  1  0  0  0  0
 24 31  2  0  0  0  0
 24 45  1  0  0  0  0
 25 46  1  0  0  0  0
 25 47  1  0  0  0  0
 25 48  1  0  0  0  0
 26 49  1  0  0  0  0
 27 50  1  0  0  0  0
 27 51  1  0  0  0  0
 27 52  1  0  0  0  0
 28 33  1  0  0  0  0
 28 53  1  0  0  0  0
 29 34  2  0  0  0  0
 29 54  1  0  0  0  0
 30 32  2  0  0  0  0
 30 55  1  0  0  0  0
 31 32  1  0  0  0  0
 31 56  1  0  0  0  0
 32 37  1  0  0  0  0
 33 35  2  0  0  0  0
 33 57  1  0  0  0  0
 34 35  1  0  0  0  0
 34 58  1  0  0  0  0
M  END
> <PUBCHEM_COMPOUND_CID>
44352395

> <PUBCHEM_COMPOUND_CANONICALIZED>
1

> <PUBCHEM_CACTVS_COMPLEXITY>
1040

> <PUBCHEM_CACTVS_HBOND_ACCEPTOR>
9

> <PUBCHEM_CACTVS_HBOND_DONOR>
0

> <PUBCHEM_CACTVS_ROTATABLE_BOND>
7

> <PUBCHEM_CACTVS_SUBSKEYS>
AAADceB7sYAAAAAAAAAAAAAAAAAAAWAAAAAwYIAAAAAAAAAB0AAAHwAAAAAADBzhnhY/lpcMFAC4BzV3dASiiC0xMqAJ2AE+eMiO7iLEuRuXMCAuxhPY6a+QwPAOYAAAAAAAAADAAAAAAAAAAAAAAAAAAA==

> <PUBCHEM_IUPAC_OPENEYE_NAME>
6-[[(4-cyanophenyl)-(3-methylimidazol-4-yl)methoxy]methyl]-1-methyl-2-oxo-5-[4-(trifluoromethoxy)phenyl]pyridine-3-carbonitrile

> <PUBCHEM_IUPAC_CAS_NAME>
6-[[(4-cyanophenyl)-(3-methyl-4-imidazolyl)methoxy]methyl]-1-methyl-2-oxo-5-[4-(trifluoromethoxy)phenyl]-3-pyridinecarbonitrile

> <PUBCHEM_IUPAC_NAME_MARKUP>
6-[[(4-cyanophenyl)-(3-methylimidazol-4-yl)methoxy]methyl]-1-methyl-2-oxo-5-[4-(trifluoromethoxy)phenyl]pyridine-3-carbonitrile

> <PUBCHEM_IUPAC_NAME>
6-[[(4-cyanophenyl)-(3-methylimidazol-4-yl)methoxy]methyl]-1-methyl-2-oxo-5-[4-(trifluoromethoxy)phenyl]pyridine-3-carbonitrile

> <PUBCHEM_IUPAC_SYSTEMATIC_NAME>
6-[[(4-cyanophenyl)-(3-methylimidazol-4-yl)methoxy]methyl]-1-methyl-2-oxidanylidene-5-[4-(trifluoromethyloxy)phenyl]pyridine-3-carbonitrile

> <PUBCHEM_IUPAC_TRADITIONAL_NAME>
6-[[(4-cyanophenyl)-(3-methylimidazol-4-yl)methoxy]methyl]-2-keto-1-methyl-5-[4-(trifluoromethoxy)phenyl]nicotinonitrile

> <PUBCHEM_IUPAC_INCHI>
InChI=1S/C27H20F3N5O3/c1-34-16-33-14-23(34)25(19-5-3-17(12-31)4-6-19)37-15-24-22(11-20(13-32)26(36)35(24)2)18-7-9-21(10-8-18)38-27(28,29)30/h3-11,14,16,25H,15H2,1-2H3

> <PUBCHEM_IUPAC_INCHIKEY>
AXIVWWPYPSYJLD-UHFFFAOYSA-N

> <PUBCHEM_XLOGP3_AA>
3.4

> <PUBCHEM_EXACT_MASS>
519.15182400

> <PUBCHEM_MOLECULAR_FORMULA>
C27H20F3N5O3

> <PUBCHEM_MOLECULAR_WEIGHT>
519.5

> <PUBCHEM_SMILES>
CN1C=NC=C1C(C2=CC=C(C=C2)C#N)OCC3=C(C=C(C(=O)N3C)C#N)C4=CC=C(C=C4)OC(F)(F)F

> <PUBCHEM_OPENEYE_CAN_SMILES>
CN1C=NC=C1C(C2=CC=C(C=C2)C#N)OCC3=C(C=C(C(=O)N3C)C#N)C4=CC=C(C=C4)OC(F)(F)F

> <PUBCHEM_OPENEYE_ISO_SMILES>
CN1C=NC=C1C(C2=CC=C(C=C2)C#N)OCC3=C(C=C(C(=O)N3C)C#N)C4=CC=C(C=C4)OC(F)(F)F

> <PUBCHEM_CACTVS_TPSA>
104

> <PUBCHEM_MONOISOTOPIC_WEIGHT>
519.15182400

> <PUBCHEM_TOTAL_CHARGE>
0

> <PUBCHEM_HEAVY_ATOM_COUNT>
38

> <PUBCHEM_ATOM_DEF_STEREO_COUNT>
0

> <PUBCHEM_ATOM_UDEF_STEREO_COUNT>
1

> <PUBCHEM_BOND_DEF_STEREO_COUNT>
0

> <PUBCHEM_BOND_UDEF_STEREO_COUNT>
0

> <PUBCHEM_ISOTOPIC_ATOM_COUNT>
0

> <PUBCHEM_COMPONENT_COUNT>
1

> <PUBCHEM_CACTVS_TAUTO_COUNT>
-1

> <PUBCHEM_COORDINATE_TYPE>
1
5
255

> <PUBCHEM_BONDANNOTATIONS>
13  16  8
15  21  8
16  19  8
17  23  8
17  24  8
18  28  8
18  29  8
19  22  8
20  22  8
23  30  8
24  31  8
28  33  8
29  34  8
30  32  8
31  32  8
33  35  8
34  35  8
12  4  3
7  13  8
7  20  8
8  15  8
8  26  8
9  21  8
9  26  8

$$$$
