5092865
  -OEChem-03202505152D

 33 36  0     0  0  0  0  0  0999 V2000
    5.6151    1.8974    0.0000 O   0  0  0  0  0  0  0  0  0  0  0  0
    9.9454    0.7804    0.0000 O   0  0  0  0  0  0  0  0  0  0  0  0
    4.8370   -1.3951    0.0000 N   0  0  0  0  0  0  0  0  0  0  0  0
    5.8311   -1.3943    0.0000 N   0  0  0  0  0  0  0  0  0  0  0  0
    5.3364    0.1373    0.0000 C   0  0  0  0  0  0  0  0  0  0  0  0
    4.5274   -0.4505    0.0000 C   0  0  0  0  0  0  0  0  0  0  0  0
    3.7183    0.1373    0.0000 C   0  0  0  0  0  0  0  0  0  0  0  0
    4.0274    1.0883    0.0000 C   0  0  0  0  0  0  0  0  0  0  0  0
    6.1391   -0.4491    0.0000 C   0  0  0  0  0  0  0  0  0  0  0  0
    5.0274    1.0883    0.0000 C   0  0  0  0  0  0  0  0  0  0  0  0
    7.0907   -0.1417    0.0000 C   0  0  0  0  0  0  0  0  0  0  0  0
    2.7029   -0.0950    0.0000 C   0  0  0  0  0  0  0  0  0  0  0  0
    3.3424    1.8731    0.0000 C   0  0  0  0  0  0  0  0  0  0  0  0
    2.0000    0.6737    0.0000 C   0  0  0  0  0  0  0  0  0  0  0  0
    2.3219    1.6644    0.0000 C   0  0  0  0  0  0  0  0  0  0  0  0
    7.8327   -0.8122    0.0000 C   0  0  0  0  0  0  0  0  0  0  0  0
    7.3003    0.8360    0.0000 C   0  0  0  0  0  0  0  0  0  0  0  0
    8.7842   -0.5048    0.0000 C   0  0  0  0  0  0  0  0  0  0  0  0
    8.2519    1.1434    0.0000 C   0  0  0  0  0  0  0  0  0  0  0  0
    8.9938    0.4730    0.0000 C   0  0  0  0  0  0  0  0  0  0  0  0
   10.6874    0.1100    0.0000 C   0  0  0  0  0  0  0  0  0  0  0  0
    4.4734   -1.8974    0.0000 H   0  0  0  0  0  0  0  0  0  0  0  0
    2.5182   -0.6868    0.0000 H   0  0  0  0  0  0  0  0  0  0  0  0
    3.5408    2.4605    0.0000 H   0  0  0  0  0  0  0  0  0  0  0  0
    1.3940    0.5425    0.0000 H   0  0  0  0  0  0  0  0  0  0  0  0
    1.9088    2.1267    0.0000 H   0  0  0  0  0  0  0  0  0  0  0  0
    7.7027   -1.4184    0.0000 H   0  0  0  0  0  0  0  0  0  0  0  0
    6.8402    1.2517    0.0000 H   0  0  0  0  0  0  0  0  0  0  0  0
    9.2443   -0.9204    0.0000 H   0  0  0  0  0  0  0  0  0  0  0  0
    8.3818    1.7496    0.0000 H   0  0  0  0  0  0  0  0  0  0  0  0
   10.2718   -0.3501    0.0000 H   0  0  0  0  0  0  0  0  0  0  0  0
   11.1475   -0.3057    0.0000 H   0  0  0  0  0  0  0  0  0  0  0  0
   11.1031    0.5700    0.0000 H   0  0  0  0  0  0  0  0  0  0  0  0
  1 10  2  0  0  0  0
  2 20  1  0  0  0  0
  2 21  1  0  0  0  0
  3  4  1  0  0  0  0
  3  6  1  0  0  0  0
  3 22  1  0  0  0  0
  4  9  2  0  0  0  0
  5  6  2  0  0  0  0
  5  9  1  0  0  0  0
  5 10  1  0  0  0  0
  6  7  1  0  0  0  0
  7  8  1  0  0  0  0
  7 12  2  0  0  0  0
  8 10  1  0  0  0  0
  8 13  2  0  0  0  0
  9 11  1  0  0  0  0
 11 16  2  0  0  0  0
 11 17  1  0  0  0  0
 12 14  1  0  0  0  0
 12 23  1  0  0  0  0
 13 15  1  0  0  0  0
 13 24  1  0  0  0  0
 14 15  2  0  0  0  0
 14 25  1  0  0  0  0
 15 26  1  0  0  0  0
 16 18  1  0  0  0  0
 16 27  1  0  0  0  0
 17 19  2  0  0  0  0
 17 28  1  0  0  0  0
 18 20  2  0  0  0  0
 18 29  1  0  0  0  0
 19 20  1  0  0  0  0
 19 30  1  0  0  0  0
 21 31  1  0  0  0  0
 21 32  1  0  0  0  0
 21 33  1  0  0  0  0
M  END
> <PUBCHEM_COMPOUND_CID>
5092865

> <PUBCHEM_COMPOUND_CANONICALIZED>
1

> <PUBCHEM_CACTVS_COMPLEXITY>
406

> <PUBCHEM_CACTVS_HBOND_ACCEPTOR>
3

> <PUBCHEM_CACTVS_HBOND_DONOR>
1

> <PUBCHEM_CACTVS_ROTATABLE_BOND>
2

> <PUBCHEM_CACTVS_SUBSKEYS>
AAADccB7MAAAAAAAAAAAAAAAAAAAAeIAAAAwYAAAAAAWAGAB0AAAHgAYAAAADAyBngIyhpBjBACqA6RyQACSDAAkIAAYuSEmTNgMJrqE9duAtaBkyBEI6cec2OGOoAAAAAAQAABAAAAAACAAASAACQAAAA==

> <PUBCHEM_IUPAC_OPENEYE_NAME>
3-(4-methoxyphenyl)-1H-indeno[1,2-c]pyrazol-4-one

> <PUBCHEM_IUPAC_CAS_NAME>
3-(4-methoxyphenyl)-1H-indeno[1,2-c]pyrazol-4-one

> <PUBCHEM_IUPAC_NAME_MARKUP>
3-(4-methoxyphenyl)-1<I>H</I>-indeno[1,2-c]pyrazol-4-one

> <PUBCHEM_IUPAC_NAME>
3-(4-methoxyphenyl)-1H-indeno[1,2-c]pyrazol-4-one

> <PUBCHEM_IUPAC_SYSTEMATIC_NAME>
3-(4-methoxyphenyl)-1H-indeno[1,2-c]pyrazol-4-one

> <PUBCHEM_IUPAC_TRADITIONAL_NAME>
3-(4-methoxyphenyl)-1H-indeno[1,2-c]pyrazol-4-one

> <PUBCHEM_IUPAC_INCHI>
InChI=1S/C17H12N2O2/c1-21-11-8-6-10(7-9-11)15-14-16(19-18-15)12-4-2-3-5-13(12)17(14)20/h2-9H,1H3,(H,18,19)

> <PUBCHEM_IUPAC_INCHIKEY>
HAFOQYHPJYVFTI-UHFFFAOYSA-N

> <PUBCHEM_XLOGP3_AA>
3

> <PUBCHEM_EXACT_MASS>
276.089877630

> <PUBCHEM_MOLECULAR_FORMULA>
C17H12N2O2

> <PUBCHEM_MOLECULAR_WEIGHT>
276.29

> <PUBCHEM_SMILES>
COC1=CC=C(C=C1)C2=NNC3=C2C(=O)C4=CC=CC=C43

> <PUBCHEM_OPENEYE_CAN_SMILES>
COC1=CC=C(C=C1)C2=NNC3=C2C(=O)C4=CC=CC=C43

> <PUBCHEM_OPENEYE_ISO_SMILES>
COC1=CC=C(C=C1)C2=NNC3=C2C(=O)C4=CC=CC=C43

> <PUBCHEM_CACTVS_TPSA>
55

> <PUBCHEM_MONOISOTOPIC_WEIGHT>
276.089877630

> <PUBCHEM_TOTAL_CHARGE>
0

> <PUBCHEM_HEAVY_ATOM_COUNT>
21

> <PUBCHEM_ATOM_DEF_STEREO_COUNT>
0

> <PUBCHEM_ATOM_UDEF_STEREO_COUNT>
0

> <PUBCHEM_BOND_DEF_STEREO_COUNT>
0

> <PUBCHEM_BOND_UDEF_STEREO_COUNT>
0

> <PUBCHEM_ISOTOPIC_ATOM_COUNT>
0

> <PUBCHEM_COMPONENT_COUNT>
1

> <PUBCHEM_CACTVS_TAUTO_COUNT>
-1

> <PUBCHEM_COORDINATE_TYPE>
1
5
255

> <PUBCHEM_BONDANNOTATIONS>
11  16  8
11  17  8
12  14  8
13  15  8
14  15  8
16  18  8
17  19  8
18  20  8
19  20  8
3  4  8
3  6  8
4  9  8
5  6  8
5  9  8
7  12  8
7  8  8
8  13  8

$$$$
