44370465
  -OEChem-03202505402D

 68 74  0     1  0  0  0  0  0999 V2000
    5.7342   -3.5914    0.0000 Cl  0  0  0  0  0  0  0  0  0  0  0  0
    5.5547    3.1060    0.0000 Cl  0  0  0  0  0  0  0  0  0  0  0  0
   13.5808    1.7320    0.0000 Cl  0  0  0  0  0  0  0  0  0  0  0  0
    5.2927   -0.0103    0.0000 O   0  0  0  0  0  0  0  0  0  0  0  0
    4.7293   -2.6837    0.0000 O   0  0  0  0  0  0  0  0  0  0  0  0
    2.6678   -0.3422    0.0000 O   0  0  0  0  0  0  0  0  0  0  0  0
    3.2892   -2.2433    0.0000 O   0  0  0  0  0  0  0  0  0  0  0  0
    3.0250    1.3526    0.0000 O   0  0  0  0  0  0  0  0  0  0  0  0
   10.3078   -1.7552    0.0000 O   0  0  0  0  0  0  0  0  0  0  0  0
   10.3078    1.7552    0.0000 O   0  0  0  0  0  0  0  0  0  0  0  0
   11.5808    1.7320    0.0000 O   0  0  0  0  0  0  0  0  0  0  0  0
    6.5819   -1.1671    0.0000 N   0  0  0  0  0  0  0  0  0  0  0  0
    6.5819    1.1671    0.0000 N   0  0  0  0  0  0  0  0  0  0  0  0
   10.5808    0.0000    0.0000 N   0  0  0  0  0  0  0  0  0  0  0  0
    5.6034   -0.9609    0.0000 C   0  0  3  0  0  0  0  0  0  0  0  0
    4.9355   -1.7052    0.0000 C   0  0  3  0  0  0  0  0  0  0  0  0
    3.9570   -1.4990    0.0000 C   0  0  3  0  0  0  0  0  0  0  0  0
    3.6464   -0.5484    0.0000 C   0  0  3  0  0  0  0  0  0  0  0  0
    7.3189   -0.5000    0.0000 C   0  0  0  0  0  0  0  0  0  0  0  0
    4.3142    0.1959    0.0000 C   0  0  3  0  0  0  0  0  0  0  0  0
    8.1849   -1.0000    0.0000 C   0  0  0  0  0  0  0  0  0  0  0  0
    6.9870   -2.0749    0.0000 C   0  0  0  0  0  0  0  0  0  0  0  0
    7.3189    0.5000    0.0000 C   0  0  0  0  0  0  0  0  0  0  0  0
    7.9757   -1.9718    0.0000 C   0  0  0  0  0  0  0  0  0  0  0  0
    9.0509   -0.5000    0.0000 C   0  0  0  0  0  0  0  0  0  0  0  0
    8.1849    1.0000    0.0000 C   0  0  0  0  0  0  0  0  0  0  0  0
    9.0509    0.5000    0.0000 C   0  0  0  0  0  0  0  0  0  0  0  0
    4.0035    1.1464    0.0000 C   0  0  0  0  0  0  0  0  0  0  0  0
    7.9757    1.9718    0.0000 C   0  0  0  0  0  0  0  0  0  0  0  0
    9.9972   -0.8047    0.0000 C   0  0  0  0  0  0  0  0  0  0  0  0
    6.9870    2.0749    0.0000 C   0  0  0  0  0  0  0  0  0  0  0  0
    6.5505   -3.0138    0.0000 C   0  0  0  0  0  0  0  0  0  0  0  0
    9.9972    0.8047    0.0000 C   0  0  0  0  0  0  0  0  0  0  0  0
    8.5965   -2.8006    0.0000 C   0  0  0  0  0  0  0  0  0  0  0  0
    7.1519   -3.8567    0.0000 C   0  0  0  0  0  0  0  0  0  0  0  0
    8.1818   -3.7494    0.0000 C   0  0  0  0  0  0  0  0  0  0  0  0
    8.5965    2.8006    0.0000 C   0  0  0  0  0  0  0  0  0  0  0  0
   11.5808    0.0000    0.0000 C   0  0  0  0  0  0  0  0  0  0  0  0
    6.5505    3.0138    0.0000 C   0  0  0  0  0  0  0  0  0  0  0  0
    2.0000   -1.0865    0.0000 C   0  0  0  0  0  0  0  0  0  0  0  0
    8.1818    3.7494    0.0000 C   0  0  0  0  0  0  0  0  0  0  0  0
    7.1519    3.8567    0.0000 C   0  0  0  0  0  0  0  0  0  0  0  0
   12.0808    0.8660    0.0000 C   0  0  0  0  0  0  0  0  0  0  0  0
   13.0808    0.8660    0.0000 C   0  0  0  0  0  0  0  0  0  0  0  0
    6.0174   -0.4994    0.0000 H   0  0  0  0  0  0  0  0  0  0  0  0
    5.4884   -1.9857    0.0000 H   0  0  0  0  0  0  0  0  0  0  0  0
    4.1496   -2.0883    0.0000 H   0  0  0  0  0  0  0  0  0  0  0  0
    3.2323   -1.0099    0.0000 H   0  0  0  0  0  0  0  0  0  0  0  0
    4.7283    0.6573    0.0000 H   0  0  0  0  0  0  0  0  0  0  0  0
    4.6174    1.2337    0.0000 H   0  0  0  0  0  0  0  0  0  0  0  0
    4.0241    1.7660    0.0000 H   0  0  0  0  0  0  0  0  0  0  0  0
    5.9752    1.0392    0.0000 H   0  0  0  0  0  0  0  0  0  0  0  0
    4.1400   -2.8763    0.0000 H   0  0  0  0  0  0  0  0  0  0  0  0
    9.2123   -2.7292    0.0000 H   0  0  0  0  0  0  0  0  0  0  0  0
    2.6825   -2.1154    0.0000 H   0  0  0  0  0  0  0  0  0  0  0  0
    6.8970   -4.4219    0.0000 H   0  0  0  0  0  0  0  0  0  0  0  0
    8.5477   -4.2499    0.0000 H   0  0  0  0  0  0  0  0  0  0  0  0
    9.2123    2.7292    0.0000 H   0  0  0  0  0  0  0  0  0  0  0  0
   11.4731   -0.6106    0.0000 H   0  0  0  0  0  0  0  0  0  0  0  0
   12.1634   -0.2121    0.0000 H   0  0  0  0  0  0  0  0  0  0  0  0
    1.5385   -0.6724    0.0000 H   0  0  0  0  0  0  0  0  0  0  0  0
    1.5859   -1.5480    0.0000 H   0  0  0  0  0  0  0  0  0  0  0  0
    2.4615   -1.5006    0.0000 H   0  0  0  0  0  0  0  0  0  0  0  0
    2.8324    1.9419    0.0000 H   0  0  0  0  0  0  0  0  0  0  0  0
    8.5477    4.2499    0.0000 H   0  0  0  0  0  0  0  0  0  0  0  0
    6.8970    4.4219    0.0000 H   0  0  0  0  0  0  0  0  0  0  0  0
   12.9731    0.2554    0.0000 H   0  0  0  0  0  0  0  0  0  0  0  0
   13.6634    0.6540    0.0000 H   0  0  0  0  0  0  0  0  0  0  0  0
  1 32  1  0  0  0  0
  2 39  1  0  0  0  0
  3 44  1  0  0  0  0
  4 15  1  0  0  0  0
  4 20  1  0  0  0  0
  5 16  1  0  0  0  0
  5 53  1  0  0  0  0
  6 18  1  0  0  0  0
  6 40  1  0  0  0  0
  7 17  1  0  0  0  0
  7 55  1  0  0  0  0
  8 28  1  0  0  0  0
  8 64  1  0  0  0  0
  9 30  2  0  0  0  0
 10 33  2  0  0  0  0
 11 43  2  0  0  0  0
 12 15  1  0  0  0  0
 12 19  1  0  0  0  0
 12 22  1  0  0  0  0
 13 23  1  0  0  0  0
 13 31  1  0  0  0  0
 13 52  1  0  0  0  0
 14 30  1  0  0  0  0
 14 33  1  0  0  0  0
 14 38  1  0  0  0  0
 15 16  1  0  0  0  0
 15 45  1  0  0  0  0
 16 17  1  0  0  0  0
 16 46  1  0  0  0  0
 17 18  1  0  0  0  0
 17 47  1  0  0  0  0
 18 20  1  0  0  0  0
 18 48  1  0  0  0  0
 19 21  1  0  0  0  0
 19 23  2  0  0  0  0
 20 28  1  0  0  0  0
 20 49  1  0  0  0  0
 21 24  1  0  0  0  0
 21 25  2  0  0  0  0
 22 24  2  0  0  0  0
 22 32  1  0  0  0  0
 23 26  1  0  0  0  0
 24 34  1  0  0  0  0
 25 27  1  0  0  0  0
 25 30  1  0  0  0  0
 26 27  2  0  0  0  0
 26 29  1  0  0  0  0
 27 33  1  0  0  0  0
 28 50  1  0  0  0  0
 28 51  1  0  0  0  0
 29 31  2  0  0  0  0
 29 37  1  0  0  0  0
 31 39  1  0  0  0  0
 32 35  2  0  0  0  0
 34 36  2  0  0  0  0
 34 54  1  0  0  0  0
 35 36  1  0  0  0  0
 35 56  1  0  0  0  0
 36 57  1  0  0  0  0
 37 41  2  0  0  0  0
 37 58  1  0  0  0  0
 38 43  1  0  0  0  0
 38 59  1  0  0  0  0
 38 60  1  0  0  0  0
 39 42  2  0  0  0  0
 40 61  1  0  0  0  0
 40 62  1  0  0  0  0
 40 63  1  0  0  0  0
 41 42  1  0  0  0  0
 41 65  1  0  0  0  0
 42 66  1  0  0  0  0
 43 44  1  0  0  0  0
 44 67  1  0  0  0  0
 44 68  1  0  0  0  0
M  END
> <PUBCHEM_COMPOUND_CID>
44370465

> <PUBCHEM_COMPOUND_CANONICALIZED>
1

> <PUBCHEM_CACTVS_COMPLEXITY>
1170

> <PUBCHEM_CACTVS_HBOND_ACCEPTOR>
8

> <PUBCHEM_CACTVS_HBOND_DONOR>
4

> <PUBCHEM_CACTVS_ROTATABLE_BOND>
6

> <PUBCHEM_CACTVS_SUBSKEYS>
AAADceB7PAAGAAAAAAAAAAAAAAAAAWLFgAA0YMEAAAAAAFgB/gAAHgIQCAAADB/hnmYywPPNlgCoA6VyVACCgCQlFSAI2SGoVthLcPLBl7HeYQhnhiDbyQf9+caeyAACYAASADCQAATAACQAYAAAAAAAAA==

> <PUBCHEM_IUPAC_OPENEYE_NAME>
5,21-dichloro-13-(3-chloro-2-oxo-propyl)-3-[3,4-dihydroxy-6-(hydroxymethyl)-5-methoxy-tetrahydropyran-2-yl]-3,13,23-triazahexacyclo[14.7.0.02,10.04,9.011,15.017,22]tricosa-1,4(9),5,7,10,15,17(22),18,20-nonaene-12,14-dione

> <PUBCHEM_IUPAC_CAS_NAME>
5,21-dichloro-13-(3-chloro-2-oxopropyl)-3-[3,4-dihydroxy-6-(hydroxymethyl)-5-methoxy-2-oxanyl]-3,13,23-triazahexacyclo[14.7.0.02,10.04,9.011,15.017,22]tricosa-1,4(9),5,7,10,15,17(22),18,20-nonaene-12,14-dione

> <PUBCHEM_IUPAC_NAME_MARKUP>
5,21-dichloro-13-(3-chloro-2-oxopropyl)-3-[3,4-dihydroxy-6-(hydroxymethyl)-5-methoxyoxan-2-yl]-3,13,23-triazahexacyclo[14.7.0.0<SUP>2,10</SUP>.0<SUP>4,9</SUP>.0<SUP>11,15</SUP>.0<SUP>17,22</SUP>]tricosa-1,4(9),5,7,10,15,17(22),18,20-nonaene-12,14-dione

> <PUBCHEM_IUPAC_NAME>
5,21-dichloro-13-(3-chloro-2-oxopropyl)-3-[3,4-dihydroxy-6-(hydroxymethyl)-5-methoxyoxan-2-yl]-3,13,23-triazahexacyclo[14.7.0.02,10.04,9.011,15.017,22]tricosa-1,4(9),5,7,10,15,17(22),18,20-nonaene-12,14-dione

> <PUBCHEM_IUPAC_SYSTEMATIC_NAME>
5,21-bis(chloranyl)-13-(3-chloranyl-2-oxidanylidene-propyl)-3-[6-(hydroxymethyl)-5-methoxy-3,4-bis(oxidanyl)oxan-2-yl]-3,13,23-triazahexacyclo[14.7.0.02,10.04,9.011,15.017,22]tricosa-1,4(9),5,7,10,15,17(22),18,20-nonaene-12,14-dione

> <PUBCHEM_IUPAC_TRADITIONAL_NAME>
5,21-dichloro-13-(3-chloro-2-keto-propyl)-3-(3,4-dihydroxy-5-methoxy-6-methylol-tetrahydropyran-2-yl)-3,13,23-triazahexacyclo[14.7.0.02,10.04,9.011,15.017,22]tricosa-1,4(9),5,7,10,15,17(22),18,20-nonaene-12,14-quinone

> <PUBCHEM_IUPAC_INCHI>
InChI=1S/C30H24Cl3N3O8/c1-43-27-16(10-37)44-30(26(40)25(27)39)36-23-13(5-3-7-15(23)33)18-20-19(28(41)35(29(20)42)9-11(38)8-31)17-12-4-2-6-14(32)21(12)34-22(17)24(18)36/h2-7,16,25-27,30,34,37,39-40H,8-10H2,1H3

> <PUBCHEM_IUPAC_INCHIKEY>
JUTNRTDWECYBAG-UHFFFAOYSA-N

> <PUBCHEM_XLOGP3_AA>
3.2

> <PUBCHEM_EXACT_MASS>
659.062898

> <PUBCHEM_MOLECULAR_FORMULA>
C30H24Cl3N3O8

> <PUBCHEM_MOLECULAR_WEIGHT>
660.9

> <PUBCHEM_SMILES>
COC1C(OC(C(C1O)O)N2C3=C(C=CC=C3Cl)C4=C5C(=C6C7=C(C(=CC=C7)Cl)NC6=C42)C(=O)N(C5=O)CC(=O)CCl)CO

> <PUBCHEM_OPENEYE_CAN_SMILES>
COC1C(OC(C(C1O)O)N2C3=C(C=CC=C3Cl)C4=C5C(=C6C7=C(C(=CC=C7)Cl)NC6=C42)C(=O)N(C5=O)CC(=O)CCl)CO

> <PUBCHEM_OPENEYE_ISO_SMILES>
COC1C(OC(C(C1O)O)N2C3=C(C=CC=C3Cl)C4=C5C(=C6C7=C(C(=CC=C7)Cl)NC6=C42)C(=O)N(C5=O)CC(=O)CCl)CO

> <PUBCHEM_CACTVS_TPSA>
154

> <PUBCHEM_MONOISOTOPIC_WEIGHT>
659.062898

> <PUBCHEM_TOTAL_CHARGE>
0

> <PUBCHEM_HEAVY_ATOM_COUNT>
44

> <PUBCHEM_ATOM_DEF_STEREO_COUNT>
0

> <PUBCHEM_ATOM_UDEF_STEREO_COUNT>
5

> <PUBCHEM_BOND_DEF_STEREO_COUNT>
0

> <PUBCHEM_BOND_UDEF_STEREO_COUNT>
0

> <PUBCHEM_ISOTOPIC_ATOM_COUNT>
0

> <PUBCHEM_COMPONENT_COUNT>
1

> <PUBCHEM_CACTVS_TAUTO_COUNT>
-1

> <PUBCHEM_COORDINATE_TYPE>
1
5
255

> <PUBCHEM_BONDANNOTATIONS>
15  12  3
12  19  8
12  22  8
13  23  8
13  31  8
19  21  8
19  23  8
20  28  3
21  24  8
21  25  8
22  24  8
22  32  8
23  26  8
24  34  8
25  27  8
26  27  8
26  29  8
29  31  8
29  37  8
31  39  8
32  35  8
34  36  8
35  36  8
37  41  8
39  42  8
41  42  8
16  5  3
18  6  3
17  7  3

$$$$
