49831026
  -OEChem-03202502472D

 35 36  0     0  0  0  0  0  0999 V2000
    4.8913    0.7503    0.0000 S   0  0  0  0  0  0  0  0  0  0  0  0
    2.3222    0.4413    0.0000 O   0  0  0  0  0  0  0  0  0  0  0  0
    6.7524    3.2149    0.0000 O   0  0  0  0  0  0  0  0  0  0  0  0
    6.5714    1.4923    0.0000 O   0  0  0  0  0  0  0  0  0  0  0  0
    3.5823    1.7014    0.0000 N   0  0  0  0  0  0  0  0  0  0  0  0
    3.2163   -1.3375    0.0000 N   0  0  0  0  0  0  0  0  0  0  0  0
    4.3566    4.3375    0.0000 N   0  0  0  0  0  0  0  0  0  0  0  0
    2.9945    2.5104    0.0000 C   0  0  0  0  0  0  0  0  0  0  0  0
    4.5823    1.7014    0.0000 C   0  0  0  0  0  0  0  0  0  0  0  0
    3.2733    0.7503    0.0000 C   0  0  0  0  0  0  0  0  0  0  0  0
    4.0823    0.1625    0.0000 C   0  0  0  0  0  0  0  0  0  0  0  0
    2.0000    2.4059    0.0000 C   0  0  0  0  0  0  0  0  0  0  0  0
    4.0823   -0.8375    0.0000 C   0  0  0  0  0  0  0  0  0  0  0  0
    5.1701    2.5104    0.0000 C   0  0  0  0  0  0  0  0  0  0  0  0
    3.2163   -2.3375    0.0000 C   0  0  0  0  0  0  0  0  0  0  0  0
    2.3503   -2.8375    0.0000 C   0  0  0  0  0  0  0  0  0  0  0  0
    4.0823   -2.8375    0.0000 C   0  0  0  0  0  0  0  0  0  0  0  0
    6.1646    2.4059    0.0000 C   0  0  0  0  0  0  0  0  0  0  0  0
    2.3503   -3.8375    0.0000 C   0  0  0  0  0  0  0  0  0  0  0  0
    4.0823   -3.8375    0.0000 C   0  0  0  0  0  0  0  0  0  0  0  0
    3.2163   -4.3375    0.0000 C   0  0  0  0  0  0  0  0  0  0  0  0
    4.7634    3.4239    0.0000 C   0  0  0  0  0  0  0  0  0  0  0  0
    3.5518    2.7822    0.0000 H   0  0  0  0  0  0  0  0  0  0  0  0
    2.8236    3.1064    0.0000 H   0  0  0  0  0  0  0  0  0  0  0  0
    1.9352    3.0225    0.0000 H   0  0  0  0  0  0  0  0  0  0  0  0
    1.3834    2.3410    0.0000 H   0  0  0  0  0  0  0  0  0  0  0  0
    2.0648    1.7892    0.0000 H   0  0  0  0  0  0  0  0  0  0  0  0
    4.6192   -1.1475    0.0000 H   0  0  0  0  0  0  0  0  0  0  0  0
    2.6794   -1.0275    0.0000 H   0  0  0  0  0  0  0  0  0  0  0  0
    1.8133   -2.5275    0.0000 H   0  0  0  0  0  0  0  0  0  0  0  0
    4.6192   -2.5275    0.0000 H   0  0  0  0  0  0  0  0  0  0  0  0
    1.8133   -4.1475    0.0000 H   0  0  0  0  0  0  0  0  0  0  0  0
    4.6192   -4.1475    0.0000 H   0  0  0  0  0  0  0  0  0  0  0  0
    3.2163   -4.9575    0.0000 H   0  0  0  0  0  0  0  0  0  0  0  0
    7.3690    3.1501    0.0000 H   0  0  0  0  0  0  0  0  0  0  0  0
  1  9  1  0  0  0  0
  1 11  1  0  0  0  0
  2 10  2  0  0  0  0
  3 18  1  0  0  0  0
  3 35  1  0  0  0  0
  4 18  2  0  0  0  0
  5  8  1  0  0  0  0
  5  9  1  0  0  0  0
  5 10  1  0  0  0  0
  6 13  1  0  0  0  0
  6 15  1  0  0  0  0
  6 29  1  0  0  0  0
  7 22  3  0  0  0  0
  8 12  1  0  0  0  0
  8 23  1  0  0  0  0
  8 24  1  0  0  0  0
  9 14  2  3  0  0  0
 10 11  1  0  0  0  0
 11 13  2  3  0  0  0
 12 25  1  0  0  0  0
 12 26  1  0  0  0  0
 12 27  1  0  0  0  0
 13 28  1  0  0  0  0
 14 18  1  0  0  0  0
 14 22  1  0  0  0  0
 15 16  2  0  0  0  0
 15 17  1  0  0  0  0
 16 19  1  0  0  0  0
 16 30  1  0  0  0  0
 17 20  2  0  0  0  0
 17 31  1  0  0  0  0
 19 21  2  0  0  0  0
 19 32  1  0  0  0  0
 20 21  1  0  0  0  0
 20 33  1  0  0  0  0
 21 34  1  0  0  0  0
M  END
> <PUBCHEM_COMPOUND_CID>
49831026

> <PUBCHEM_COMPOUND_CANONICALIZED>
1

> <PUBCHEM_CACTVS_COMPLEXITY>
582

> <PUBCHEM_CACTVS_HBOND_ACCEPTOR>
6

> <PUBCHEM_CACTVS_HBOND_DONOR>
2

> <PUBCHEM_CACTVS_ROTATABLE_BOND>
4

> <PUBCHEM_CACTVS_SUBSKEYS>
AAADccBzMABAAAAAAAAAAAAAAAAAAWAAAAAwAAAAAAAAAAABAAAAHgQQCAAADAjB0AQyyIPAAgiYBiXWWACiAABhAhAIiIEIZMgIpCLAkZGEYAhglgDI2McQAAAAAAAAAAAAAAAAAAAAAAAAAAAAAAAAAA==

> <PUBCHEM_IUPAC_OPENEYE_NAME>
2-[5-(anilinomethylene)-3-ethyl-4-oxo-thiazolidin-2-ylidene]-2-cyano-acetic acid

> <PUBCHEM_IUPAC_CAS_NAME>
2-[5-(anilinomethylidene)-3-ethyl-4-oxo-2-thiazolidinylidene]-2-cyanoacetic acid

> <PUBCHEM_IUPAC_NAME_MARKUP>
2-[5-(anilinomethylidene)-3-ethyl-4-oxo-1,3-thiazolidin-2-ylidene]-2-cyanoacetic acid

> <PUBCHEM_IUPAC_NAME>
2-[5-(anilinomethylidene)-3-ethyl-4-oxo-1,3-thiazolidin-2-ylidene]-2-cyanoacetic acid

> <PUBCHEM_IUPAC_SYSTEMATIC_NAME>
2-cyano-2-[3-ethyl-4-oxidanylidene-5-(phenylazanylmethylidene)-1,3-thiazolidin-2-ylidene]ethanoic acid

> <PUBCHEM_IUPAC_TRADITIONAL_NAME>
2-[5-(anilinomethylene)-3-ethyl-4-keto-thiazolidin-2-ylidene]-2-cyano-acetic acid

> <PUBCHEM_IUPAC_INCHI>
InChI=1S/C15H13N3O3S/c1-2-18-13(19)12(9-17-10-6-4-3-5-7-10)22-14(18)11(8-16)15(20)21/h3-7,9,17H,2H2,1H3,(H,20,21)

> <PUBCHEM_IUPAC_INCHIKEY>
SWLRONFWCBZUSI-UHFFFAOYSA-N

> <PUBCHEM_XLOGP3_AA>
2

> <PUBCHEM_EXACT_MASS>
315.06776246

> <PUBCHEM_MOLECULAR_FORMULA>
C15H13N3O3S

> <PUBCHEM_MOLECULAR_WEIGHT>
315.3

> <PUBCHEM_SMILES>
CCN1C(=O)C(=CNC2=CC=CC=C2)SC1=C(C#N)C(=O)O

> <PUBCHEM_OPENEYE_CAN_SMILES>
CCN1C(=O)C(=CNC2=CC=CC=C2)SC1=C(C#N)C(=O)O

> <PUBCHEM_OPENEYE_ISO_SMILES>
CCN1C(=O)C(=CNC2=CC=CC=C2)SC1=C(C#N)C(=O)O

> <PUBCHEM_CACTVS_TPSA>
119

> <PUBCHEM_MONOISOTOPIC_WEIGHT>
315.06776246

> <PUBCHEM_TOTAL_CHARGE>
0

> <PUBCHEM_HEAVY_ATOM_COUNT>
22

> <PUBCHEM_ATOM_DEF_STEREO_COUNT>
0

> <PUBCHEM_ATOM_UDEF_STEREO_COUNT>
0

> <PUBCHEM_BOND_DEF_STEREO_COUNT>
0

> <PUBCHEM_BOND_UDEF_STEREO_COUNT>
2

> <PUBCHEM_ISOTOPIC_ATOM_COUNT>
0

> <PUBCHEM_COMPONENT_COUNT>
1

> <PUBCHEM_CACTVS_TAUTO_COUNT>
-1

> <PUBCHEM_COORDINATE_TYPE>
1
5
255

> <PUBCHEM_BONDANNOTATIONS>
1  11  8
1  9  8
10  11  8
11  13  1
15  16  8
15  17  8
16  19  8
17  20  8
19  21  8
20  21  8
5  10  8
5  9  8
9  14  1

$$$$
