6914611
  -OEChem-03202505592D

 52 56  0     1  0  0  0  0  0999 V2000
    8.3289   -0.1174    0.0000 O   0  0  0  0  0  0  0  0  0  0  0  0
    3.7899   -1.3153    0.0000 N   0  0  0  0  0  0  0  0  0  0  0  0
    6.5968   -1.1174    0.0000 N   0  0  0  0  0  0  0  0  0  0  0  0
   10.0610    1.8826    0.0000 N   0  0  0  0  0  0  0  0  0  0  0  0
   15.3251   -1.1382    0.0000 N   0  0  0  0  0  0  0  0  0  0  0  0
    5.7308    0.3826    0.0000 C   0  0  0  0  0  0  0  0  0  0  0  0
    6.5968   -0.1174    0.0000 C   0  0  1  0  0  0  0  0  0  0  0  0
    4.8648   -0.1174    0.0000 C   0  0  0  0  0  0  0  0  0  0  0  0
    3.9570    0.2877    0.0000 C   0  0  0  0  0  0  0  0  0  0  0  0
    7.4629    0.3826    0.0000 C   0  0  0  0  0  0  0  0  0  0  0  0
    3.2892   -0.4566    0.0000 C   0  0  0  0  0  0  0  0  0  0  0  0
    4.7617   -1.1061    0.0000 C   0  0  0  0  0  0  0  0  0  0  0  0
    3.6464    1.2382    0.0000 C   0  0  0  0  0  0  0  0  0  0  0  0
    2.3107   -0.2504    0.0000 C   0  0  0  0  0  0  0  0  0  0  0  0
    2.6678    1.4444    0.0000 C   0  0  0  0  0  0  0  0  0  0  0  0
    2.0000    0.7001    0.0000 C   0  0  0  0  0  0  0  0  0  0  0  0
    9.1949    0.3826    0.0000 C   0  0  0  0  0  0  0  0  0  0  0  0
   10.9270    0.3826    0.0000 C   0  0  0  0  0  0  0  0  0  0  0  0
   11.7930   -0.1174    0.0000 C   0  0  0  0  0  0  0  0  0  0  0  0
   10.0610   -0.1174    0.0000 C   0  0  0  0  0  0  0  0  0  0  0  0
   13.5251   -0.1174    0.0000 C   0  0  0  0  0  0  0  0  0  0  0  0
   12.6590    0.3826    0.0000 C   0  0  0  0  0  0  0  0  0  0  0  0
   13.5251   -1.1174    0.0000 C   0  0  0  0  0  0  0  0  0  0  0  0
   11.7930   -1.1174    0.0000 C   0  0  0  0  0  0  0  0  0  0  0  0
    9.1949    1.3826    0.0000 C   0  0  0  0  0  0  0  0  0  0  0  0
   12.6590   -1.6174    0.0000 C   0  0  0  0  0  0  0  0  0  0  0  0
   10.9270    1.3826    0.0000 C   0  0  0  0  0  0  0  0  0  0  0  0
   14.4190    0.4173    0.0000 C   0  0  0  0  0  0  0  0  0  0  0  0
   14.4190   -1.6521    0.0000 C   0  0  0  0  0  0  0  0  0  0  0  0
   15.3251   -0.0966    0.0000 C   0  0  0  0  0  0  0  0  0  0  0  0
    6.1293    0.8575    0.0000 H   0  0  0  0  0  0  0  0  0  0  0  0
    5.3323    0.8575    0.0000 H   0  0  0  0  0  0  0  0  0  0  0  0
    7.1338   -0.4274    0.0000 H   0  0  0  0  0  0  0  0  0  0  0  0
    7.8614    0.8575    0.0000 H   0  0  0  0  0  0  0  0  0  0  0  0
    7.0644    0.8575    0.0000 H   0  0  0  0  0  0  0  0  0  0  0  0
    5.2232   -1.5202    0.0000 H   0  0  0  0  0  0  0  0  0  0  0  0
    3.5397   -1.8826    0.0000 H   0  0  0  0  0  0  0  0  0  0  0  0
    4.0604    1.6997    0.0000 H   0  0  0  0  0  0  0  0  0  0  0  0
    7.1338   -1.4274    0.0000 H   0  0  0  0  0  0  0  0  0  0  0  0
    6.0599   -1.4274    0.0000 H   0  0  0  0  0  0  0  0  0  0  0  0
    1.8966   -0.7118    0.0000 H   0  0  0  0  0  0  0  0  0  0  0  0
    2.4752    2.0338    0.0000 H   0  0  0  0  0  0  0  0  0  0  0  0
    1.3933    0.8280    0.0000 H   0  0  0  0  0  0  0  0  0  0  0  0
   10.0610   -0.7374    0.0000 H   0  0  0  0  0  0  0  0  0  0  0  0
   12.6590    1.0026    0.0000 H   0  0  0  0  0  0  0  0  0  0  0  0
   11.2561   -1.4274    0.0000 H   0  0  0  0  0  0  0  0  0  0  0  0
    8.6580    1.6926    0.0000 H   0  0  0  0  0  0  0  0  0  0  0  0
   12.6590   -2.2374    0.0000 H   0  0  0  0  0  0  0  0  0  0  0  0
   11.4639    1.6926    0.0000 H   0  0  0  0  0  0  0  0  0  0  0  0
   14.4118    1.0372    0.0000 H   0  0  0  0  0  0  0  0  0  0  0  0
   14.4118   -2.2720    0.0000 H   0  0  0  0  0  0  0  0  0  0  0  0
   15.8608    0.2155    0.0000 H   0  0  0  0  0  0  0  0  0  0  0  0
  1 10  1  0  0  0  0
  1 17  1  0  0  0  0
  2 11  1  0  0  0  0
  2 12  1  0  0  0  0
  2 37  1  0  0  0  0
  7  3  1  1  0  0  0
  3 39  1  0  0  0  0
  3 40  1  0  0  0  0
  4 25  1  0  0  0  0
  4 27  2  0  0  0  0
  5 29  2  0  0  0  0
  5 30  1  0  0  0  0
  6  7  1  0  0  0  0
  6  8  1  0  0  0  0
  6 31  1  0  0  0  0
  6 32  1  0  0  0  0
  7 10  1  0  0  0  0
  7 33  1  0  0  0  0
  8  9  1  0  0  0  0
  8 12  2  0  0  0  0
  9 11  1  0  0  0  0
  9 13  2  0  0  0  0
 10 34  1  0  0  0  0
 10 35  1  0  0  0  0
 11 14  2  0  0  0  0
 12 36  1  0  0  0  0
 13 15  1  0  0  0  0
 13 38  1  0  0  0  0
 14 16  1  0  0  0  0
 14 41  1  0  0  0  0
 15 16  2  0  0  0  0
 15 42  1  0  0  0  0
 16 43  1  0  0  0  0
 17 20  1  0  0  0  0
 17 25  2  0  0  0  0
 18 19  1  0  0  0  0
 18 20  2  0  0  0  0
 18 27  1  0  0  0  0
 19 22  2  0  0  0  0
 19 24  1  0  0  0  0
 20 44  1  0  0  0  0
 21 22  1  0  0  0  0
 21 23  2  0  0  0  0
 21 28  1  0  0  0  0
 22 45  1  0  0  0  0
 23 26  1  0  0  0  0
 23 29  1  0  0  0  0
 24 26  2  0  0  0  0
 24 46  1  0  0  0  0
 25 47  1  0  0  0  0
 26 48  1  0  0  0  0
 27 49  1  0  0  0  0
 28 30  2  0  0  0  0
 28 50  1  0  0  0  0
 29 51  1  0  0  0  0
 30 52  1  0  0  0  0
M  END
> <PUBCHEM_COMPOUND_CID>
6914611

> <PUBCHEM_COMPOUND_CANONICALIZED>
1

> <PUBCHEM_CACTVS_COMPLEXITY>
545

> <PUBCHEM_CACTVS_HBOND_ACCEPTOR>
4

> <PUBCHEM_CACTVS_HBOND_DONOR>
2

> <PUBCHEM_CACTVS_ROTATABLE_BOND>
6

> <PUBCHEM_CACTVS_SUBSKEYS>
AAADceB7oAAAAAAAAAAAAAAAAAAAAWAAAAA8eIEAAAAAAFix/gAAHgAQAAAADCzhngY8xvLJlACgAzRnRASCiCAxYiAI2aA/bJgOJuLEsZuHOCjk0BHY6Aew0PIOwAACAAASAACAAAQAACQAAAAAAAAAAA==

> <PUBCHEM_IUPAC_OPENEYE_NAME>
(2S)-1-(1H-indol-3-yl)-3-[[5-(6-isoquinolyl)-3-pyridyl]oxy]propan-2-amine

> <PUBCHEM_IUPAC_CAS_NAME>
(2S)-1-(1H-indol-3-yl)-3-[[5-(6-isoquinolinyl)-3-pyridinyl]oxy]-2-propanamine

> <PUBCHEM_IUPAC_NAME_MARKUP>
(2<I>S</I>)-1-(1<I>H</I>-indol-3-yl)-3-(5-isoquinolin-6-ylpyridin-3-yl)oxypropan-2-amine

> <PUBCHEM_IUPAC_NAME>
(2S)-1-(1H-indol-3-yl)-3-(5-isoquinolin-6-ylpyridin-3-yl)oxypropan-2-amine

> <PUBCHEM_IUPAC_SYSTEMATIC_NAME>
(2S)-1-(1H-indol-3-yl)-3-(5-isoquinolin-6-ylpyridin-3-yl)oxy-propan-2-amine

> <PUBCHEM_IUPAC_TRADITIONAL_NAME>
[(1S)-1-(1H-indol-3-ylmethyl)-2-[[5-(6-isoquinolyl)-3-pyridyl]oxy]ethyl]amine

> <PUBCHEM_IUPAC_INCHI>
InChI=1S/C25H22N4O/c26-22(10-21-14-29-25-4-2-1-3-24(21)25)16-30-23-11-20(13-28-15-23)17-5-6-19-12-27-8-7-18(19)9-17/h1-9,11-15,22,29H,10,16,26H2/t22-/m0/s1

> <PUBCHEM_IUPAC_INCHIKEY>
LHQWPYOYDRVMFI-QFIPXVFZSA-N

> <PUBCHEM_XLOGP3_AA>
3.8

> <PUBCHEM_EXACT_MASS>
394.17936134

> <PUBCHEM_MOLECULAR_FORMULA>
C25H22N4O

> <PUBCHEM_MOLECULAR_WEIGHT>
394.5

> <PUBCHEM_SMILES>
C1=CC=C2C(=C1)C(=CN2)C[C@@H](COC3=CN=CC(=C3)C4=CC5=C(C=C4)C=NC=C5)N

> <PUBCHEM_OPENEYE_CAN_SMILES>
C1=CC=C2C(=C1)C(=CN2)CC(COC3=CN=CC(=C3)C4=CC5=C(C=C4)C=NC=C5)N

> <PUBCHEM_OPENEYE_ISO_SMILES>
C1=CC=C2C(=C1)C(=CN2)C[C@@H](COC3=CN=CC(=C3)C4=CC5=C(C=C4)C=NC=C5)N

> <PUBCHEM_CACTVS_TPSA>
76.8

> <PUBCHEM_MONOISOTOPIC_WEIGHT>
394.17936134

> <PUBCHEM_TOTAL_CHARGE>
0

> <PUBCHEM_HEAVY_ATOM_COUNT>
30

> <PUBCHEM_ATOM_DEF_STEREO_COUNT>
1

> <PUBCHEM_ATOM_UDEF_STEREO_COUNT>
0

> <PUBCHEM_BOND_DEF_STEREO_COUNT>
0

> <PUBCHEM_BOND_UDEF_STEREO_COUNT>
0

> <PUBCHEM_ISOTOPIC_ATOM_COUNT>
0

> <PUBCHEM_COMPONENT_COUNT>
1

> <PUBCHEM_CACTVS_TAUTO_COUNT>
-1

> <PUBCHEM_COORDINATE_TYPE>
1
5
255

> <PUBCHEM_BONDANNOTATIONS>
11  14  8
13  15  8
14  16  8
15  16  8
17  20  8
17  25  8
18  20  8
18  27  8
19  22  8
19  24  8
2  11  8
2  12  8
21  22  8
21  23  8
21  28  8
23  26  8
23  29  8
24  26  8
28  30  8
7  3  5
4  25  8
4  27  8
5  29  8
5  30  8
8  12  8
8  9  8
9  11  8
9  13  8

$$$$
