11432911
  -OEChem-03202500452D

 57 60  0     0  0  0  0  0  0999 V2000
   14.6149   -2.4333    0.0000 S   0  0  0  0  0  0  0  0  0  0  0  0
   14.3937   -1.0365    0.0000 F   0  0  0  0  0  0  0  0  0  0  0  0
   13.2181   -2.6545    0.0000 F   0  0  0  0  0  0  0  0  0  0  0  0
    8.0622    3.2423    0.0000 F   0  0  0  0  0  0  0  0  0  0  0  0
    4.5981    3.2423    0.0000 F   0  0  0  0  0  0  0  0  0  0  0  0
   12.0458   -1.5667    0.0000 O   0  0  0  0  0  0  0  0  0  0  0  0
   15.2027   -1.6243    0.0000 O   0  0  0  0  0  0  0  0  0  0  0  0
   14.0271   -3.2423    0.0000 O   0  0  0  0  0  0  0  0  0  0  0  0
    4.5981    0.2423    0.0000 O   0  0  0  0  0  0  0  0  0  0  0  0
    2.8660    1.2423    0.0000 O   0  0  0  0  0  0  0  0  0  0  0  0
    8.9282   -1.2577    0.0000 N   0  0  0  0  0  0  0  0  0  0  0  0
    8.0622    1.2423    0.0000 N   0  0  0  0  0  0  0  0  0  0  0  0
    8.0622   -1.7577    0.0000 N   0  0  0  0  0  0  0  0  0  0  0  0
    7.1962   -0.2577    0.0000 N   0  0  0  0  0  0  0  0  0  0  0  0
   12.0458    0.0513    0.0000 N   0  0  0  0  0  0  0  0  0  0  0  0
   12.9969   -0.2577    0.0000 N   0  0  0  0  0  0  0  0  0  0  0  0
    3.7320    1.7423    0.0000 N   0  0  0  0  0  0  0  0  0  0  0  0
    9.8744    0.0470    0.0000 C   0  0  0  0  0  0  0  0  0  0  0  0
   10.1851    0.9975    0.0000 C   0  0  0  0  0  0  0  0  0  0  0  0
    8.9282   -0.2577    0.0000 C   0  0  0  0  0  0  0  0  0  0  0  0
   10.4580   -0.7577    0.0000 C   0  0  0  0  0  0  0  0  0  0  0  0
    9.8744   -1.5624    0.0000 C   0  0  0  0  0  0  0  0  0  0  0  0
   11.1636    1.2038    0.0000 C   0  0  0  0  0  0  0  0  0  0  0  0
    9.5172    1.7418    0.0000 C   0  0  0  0  0  0  0  0  0  0  0  0
    8.0622    0.2423    0.0000 C   0  0  0  0  0  0  0  0  0  0  0  0
   11.4580   -0.7577    0.0000 C   0  0  0  0  0  0  0  0  0  0  0  0
   12.9969   -1.2577    0.0000 C   0  0  0  0  0  0  0  0  0  0  0  0
   13.8059   -1.8455    0.0000 C   0  0  0  0  0  0  0  0  0  0  0  0
    7.1962   -1.2577    0.0000 C   0  0  0  0  0  0  0  0  0  0  0  0
    7.1962    1.7423    0.0000 C   0  0  0  0  0  0  0  0  0  0  0  0
    6.3301    1.2423    0.0000 C   0  0  0  0  0  0  0  0  0  0  0  0
    7.1962    2.7423    0.0000 C   0  0  0  0  0  0  0  0  0  0  0  0
   15.4239   -3.0211    0.0000 C   0  0  0  0  0  0  0  0  0  0  0  0
    5.4641    1.7423    0.0000 C   0  0  0  0  0  0  0  0  0  0  0  0
    6.3301    3.2423    0.0000 C   0  0  0  0  0  0  0  0  0  0  0  0
    5.4641    2.7423    0.0000 C   0  0  0  0  0  0  0  0  0  0  0  0
    4.5981    1.2423    0.0000 C   0  0  0  0  0  0  0  0  0  0  0  0
    2.0000    1.7423    0.0000 C   0  0  0  0  0  0  0  0  0  0  0  0
   10.3777    1.5869    0.0000 H   0  0  0  0  0  0  0  0  0  0  0  0
   10.0670   -2.1518    0.0000 H   0  0  0  0  0  0  0  0  0  0  0  0
   11.2914    0.5971    0.0000 H   0  0  0  0  0  0  0  0  0  0  0  0
   11.7703    1.3316    0.0000 H   0  0  0  0  0  0  0  0  0  0  0  0
   11.0357    1.8104    0.0000 H   0  0  0  0  0  0  0  0  0  0  0  0
    9.9787    2.1559    0.0000 H   0  0  0  0  0  0  0  0  0  0  0  0
    9.1032    2.2033    0.0000 H   0  0  0  0  0  0  0  0  0  0  0  0
    9.0558    1.3278    0.0000 H   0  0  0  0  0  0  0  0  0  0  0  0
    8.5991    1.5523    0.0000 H   0  0  0  0  0  0  0  0  0  0  0  0
    6.6592   -1.5677    0.0000 H   0  0  0  0  0  0  0  0  0  0  0  0
    6.3301    0.6223    0.0000 H   0  0  0  0  0  0  0  0  0  0  0  0
   15.0595   -3.5226    0.0000 H   0  0  0  0  0  0  0  0  0  0  0  0
   15.9255   -3.3855    0.0000 H   0  0  0  0  0  0  0  0  0  0  0  0
   15.7884   -2.5195    0.0000 H   0  0  0  0  0  0  0  0  0  0  0  0
    6.3301    3.8623    0.0000 H   0  0  0  0  0  0  0  0  0  0  0  0
    3.7320    2.3623    0.0000 H   0  0  0  0  0  0  0  0  0  0  0  0
    2.3100    2.2792    0.0000 H   0  0  0  0  0  0  0  0  0  0  0  0
    1.4631    2.0523    0.0000 H   0  0  0  0  0  0  0  0  0  0  0  0
    1.6900    1.2054    0.0000 H   0  0  0  0  0  0  0  0  0  0  0  0
  1  7  2  0  0  0  0
  1  8  2  0  0  0  0
  1 28  1  0  0  0  0
  1 33  1  0  0  0  0
  2 28  1  0  0  0  0
  3 28  1  0  0  0  0
  4 32  1  0  0  0  0
  5 36  1  0  0  0  0
  6 26  1  0  0  0  0
  6 27  1  0  0  0  0
  9 37  2  0  0  0  0
 10 17  1  0  0  0  0
 10 38  1  0  0  0  0
 11 13  1  0  0  0  0
 11 20  1  0  0  0  0
 11 22  1  0  0  0  0
 12 25  1  0  0  0  0
 12 30  1  0  0  0  0
 12 47  1  0  0  0  0
 13 29  2  0  0  0  0
 14 25  2  0  0  0  0
 14 29  1  0  0  0  0
 15 16  1  0  0  0  0
 15 26  2  0  0  0  0
 16 27  2  0  0  0  0
 17 37  1  0  0  0  0
 17 54  1  0  0  0  0
 18 19  1  0  0  0  0
 18 20  2  0  0  0  0
 18 21  1  0  0  0  0
 19 23  1  0  0  0  0
 19 24  1  0  0  0  0
 19 39  1  0  0  0  0
 20 25  1  0  0  0  0
 21 22  2  0  0  0  0
 21 26  1  0  0  0  0
 22 40  1  0  0  0  0
 23 41  1  0  0  0  0
 23 42  1  0  0  0  0
 23 43  1  0  0  0  0
 24 44  1  0  0  0  0
 24 45  1  0  0  0  0
 24 46  1  0  0  0  0
 27 28  1  0  0  0  0
 29 48  1  0  0  0  0
 30 31  1  0  0  0  0
 30 32  2  0  0  0  0
 31 34  2  0  0  0  0
 31 49  1  0  0  0  0
 32 35  1  0  0  0  0
 33 50  1  0  0  0  0
 33 51  1  0  0  0  0
 33 52  1  0  0  0  0
 34 36  1  0  0  0  0
 34 37  1  0  0  0  0
 35 36  2  0  0  0  0
 35 53  1  0  0  0  0
 38 55  1  0  0  0  0
 38 56  1  0  0  0  0
 38 57  1  0  0  0  0
M  END
> <PUBCHEM_COMPOUND_CID>
11432911

> <PUBCHEM_COMPOUND_CANONICALIZED>
1

> <PUBCHEM_CACTVS_COMPLEXITY>
961

> <PUBCHEM_CACTVS_HBOND_ACCEPTOR>
14

> <PUBCHEM_CACTVS_HBOND_DONOR>
2

> <PUBCHEM_CACTVS_ROTATABLE_BOND>
8

> <PUBCHEM_CACTVS_SUBSKEYS>
AAADceB7ucBAAAAAAAAAAAAAAAAAAWLAAAA8QAAAAAAAAFgB/AAAHwQcAAAADQjB3h6/8LbYFEqqAzd3dHDShC89krA32CEofNiIbvrA/JmesYhu2API6ee8mQKOgAAAQAAAAAAAAACAAAAAAAAAAAAAAA==

> <PUBCHEM_IUPAC_OPENEYE_NAME>
5-[[6-[5-[difluoro(methylsulfonyl)methyl]-1,3,4-oxadiazol-2-yl]-5-isopropyl-pyrrolo[2,1-f][1,2,4]triazin-4-yl]amino]-2,4-difluoro-N-methoxy-benzamide

> <PUBCHEM_IUPAC_CAS_NAME>
5-[[6-[5-[difluoro(methylsulfonyl)methyl]-1,3,4-oxadiazol-2-yl]-5-propan-2-yl-4-pyrrolo[2,1-f][1,2,4]triazinyl]amino]-2,4-difluoro-N-methoxybenzamide

> <PUBCHEM_IUPAC_NAME_MARKUP>
5-[[6-[5-[difluoro(methylsulfonyl)methyl]-1,3,4-oxadiazol-2-yl]-5-propan-2-ylpyrrolo[2,1-f][1,2,4]triazin-4-yl]amino]-2,4-difluoro-<I>N</I>-methoxybenzamide

> <PUBCHEM_IUPAC_NAME>
5-[[6-[5-[difluoro(methylsulfonyl)methyl]-1,3,4-oxadiazol-2-yl]-5-propan-2-ylpyrrolo[2,1-f][1,2,4]triazin-4-yl]amino]-2,4-difluoro-N-methoxybenzamide

> <PUBCHEM_IUPAC_SYSTEMATIC_NAME>
5-[[6-[5-[bis(fluoranyl)-methylsulfonyl-methyl]-1,3,4-oxadiazol-2-yl]-5-propan-2-yl-pyrrolo[2,1-f][1,2,4]triazin-4-yl]amino]-2,4-bis(fluoranyl)-N-methoxy-benzamide

> <PUBCHEM_IUPAC_TRADITIONAL_NAME>
5-[[6-[5-[difluoro(mesyl)methyl]-1,3,4-oxadiazol-2-yl]-5-isopropyl-pyrrolo[2,1-f][1,2,4]triazin-4-yl]amino]-2,4-difluoro-N-methoxy-benzamide

> <PUBCHEM_IUPAC_INCHI>
InChI=1S/C21H19F4N7O5S/c1-9(2)15-11(19-29-30-20(37-19)21(24,25)38(4,34)35)7-32-16(15)17(26-8-27-32)28-14-5-10(18(33)31-36-3)12(22)6-13(14)23/h5-9H,1-4H3,(H,31,33)(H,26,27,28)

> <PUBCHEM_IUPAC_INCHIKEY>
FAYFMVHYNQOQRQ-UHFFFAOYSA-N

> <PUBCHEM_XLOGP3_AA>
2.4

> <PUBCHEM_EXACT_MASS>
557.11045055

> <PUBCHEM_MOLECULAR_FORMULA>
C21H19F4N7O5S

> <PUBCHEM_MOLECULAR_WEIGHT>
557.5

> <PUBCHEM_SMILES>
CC(C)C1=C2C(=NC=NN2C=C1C3=NN=C(O3)C(F)(F)S(=O)(=O)C)NC4=C(C=C(C(=C4)C(=O)NOC)F)F

> <PUBCHEM_OPENEYE_CAN_SMILES>
CC(C)C1=C2C(=NC=NN2C=C1C3=NN=C(O3)C(F)(F)S(=O)(=O)C)NC4=C(C=C(C(=C4)C(=O)NOC)F)F

> <PUBCHEM_OPENEYE_ISO_SMILES>
CC(C)C1=C2C(=NC=NN2C=C1C3=NN=C(O3)C(F)(F)S(=O)(=O)C)NC4=C(C=C(C(=C4)C(=O)NOC)F)F

> <PUBCHEM_CACTVS_TPSA>
162

> <PUBCHEM_MONOISOTOPIC_WEIGHT>
557.11045055

> <PUBCHEM_TOTAL_CHARGE>
0

> <PUBCHEM_HEAVY_ATOM_COUNT>
38

> <PUBCHEM_ATOM_DEF_STEREO_COUNT>
0

> <PUBCHEM_ATOM_UDEF_STEREO_COUNT>
0

> <PUBCHEM_BOND_DEF_STEREO_COUNT>
0

> <PUBCHEM_BOND_UDEF_STEREO_COUNT>
0

> <PUBCHEM_ISOTOPIC_ATOM_COUNT>
0

> <PUBCHEM_COMPONENT_COUNT>
1

> <PUBCHEM_CACTVS_TAUTO_COUNT>
-1

> <PUBCHEM_COORDINATE_TYPE>
1
5
255

> <PUBCHEM_BONDANNOTATIONS>
11  13  8
11  20  8
11  22  8
13  29  8
14  25  8
14  29  8
15  16  8
15  26  8
16  27  8
18  20  8
18  21  8
20  25  8
21  22  8
30  31  8
30  32  8
31  34  8
32  35  8
34  36  8
35  36  8
6  26  8
6  27  8

$$$$
