49830464
  -OEChem-03202501312D

 47 51  0     0  0  0  0  0  0999 V2000
    5.0021   -3.5414    0.0000 F   0  0  0  0  0  0  0  0  0  0  0  0
    5.1646    1.1143    0.0000 N   0  0  0  0  0  0  0  0  0  0  0  0
    6.6428    1.7725    0.0000 N   0  0  0  0  0  0  0  0  0  0  0  0
    5.6646    1.9804    0.0000 N   0  0  0  0  0  0  0  0  0  0  0  0
   10.8752   -0.2221    0.0000 N   0  0  0  0  0  0  0  0  0  0  0  0
   10.2916   -1.0268    0.0000 N   0  0  0  0  0  0  0  0  0  0  0  0
    5.8338    0.3712    0.0000 C   0  0  0  0  0  0  0  0  0  0  0  0
    6.7473    0.7779    0.0000 C   0  0  0  0  0  0  0  0  0  0  0  0
    7.6133    0.2779    0.0000 C   0  0  0  0  0  0  0  0  0  0  0  0
    9.3454    0.2779    0.0000 C   0  0  0  0  0  0  0  0  0  0  0  0
    4.1701    1.0098    0.0000 C   0  0  0  0  0  0  0  0  0  0  0  0
    8.4793    0.7779    0.0000 C   0  0  0  0  0  0  0  0  0  0  0  0
    5.6258   -0.6070    0.0000 C   0  0  0  0  0  0  0  0  0  0  0  0
    9.3454   -0.7221    0.0000 C   0  0  0  0  0  0  0  0  0  0  0  0
   10.2916    0.5827    0.0000 C   0  0  0  0  0  0  0  0  0  0  0  0
    7.6133   -0.7221    0.0000 C   0  0  0  0  0  0  0  0  0  0  0  0
    3.5823    1.8188    0.0000 C   0  0  0  0  0  0  0  0  0  0  0  0
    8.4793   -1.2221    0.0000 C   0  0  0  0  0  0  0  0  0  0  0  0
    4.6748   -0.9160    0.0000 C   0  0  0  0  0  0  0  0  0  0  0  0
    6.3690   -1.2761    0.0000 C   0  0  0  0  0  0  0  0  0  0  0  0
   10.6022    1.5332    0.0000 C   0  0  0  0  0  0  0  0  0  0  0  0
    3.9890    2.7324    0.0000 C   0  0  0  0  0  0  0  0  0  0  0  0
    2.5878    1.7143    0.0000 C   0  0  0  0  0  0  0  0  0  0  0  0
    4.4669   -1.8941    0.0000 C   0  0  0  0  0  0  0  0  0  0  0  0
    6.1611   -2.2542    0.0000 C   0  0  0  0  0  0  0  0  0  0  0  0
    5.2100   -2.5632    0.0000 C   0  0  0  0  0  0  0  0  0  0  0  0
    3.4013    3.5414    0.0000 C   0  0  0  0  0  0  0  0  0  0  0  0
    2.0000    2.5233    0.0000 C   0  0  0  0  0  0  0  0  0  0  0  0
    2.4067    3.4369    0.0000 C   0  0  0  0  0  0  0  0  0  0  0  0
    3.6128    0.7380    0.0000 H   0  0  0  0  0  0  0  0  0  0  0  0
    4.3410    0.4138    0.0000 H   0  0  0  0  0  0  0  0  0  0  0  0
    8.4793    1.3979    0.0000 H   0  0  0  0  0  0  0  0  0  0  0  0
    7.0764   -1.0321    0.0000 H   0  0  0  0  0  0  0  0  0  0  0  0
    8.4793   -1.8421    0.0000 H   0  0  0  0  0  0  0  0  0  0  0  0
   11.4952   -0.2221    0.0000 H   0  0  0  0  0  0  0  0  0  0  0  0
    4.2140   -0.5011    0.0000 H   0  0  0  0  0  0  0  0  0  0  0  0
    6.9586   -1.0845    0.0000 H   0  0  0  0  0  0  0  0  0  0  0  0
   11.1916    1.3406    0.0000 H   0  0  0  0  0  0  0  0  0  0  0  0
   10.7949    2.1225    0.0000 H   0  0  0  0  0  0  0  0  0  0  0  0
   10.0129    1.7258    0.0000 H   0  0  0  0  0  0  0  0  0  0  0  0
    4.6056    2.7972    0.0000 H   0  0  0  0  0  0  0  0  0  0  0  0
    2.3356    1.1479    0.0000 H   0  0  0  0  0  0  0  0  0  0  0  0
    3.8772   -2.0857    0.0000 H   0  0  0  0  0  0  0  0  0  0  0  0
    6.6218   -2.6691    0.0000 H   0  0  0  0  0  0  0  0  0  0  0  0
    3.6534    4.1078    0.0000 H   0  0  0  0  0  0  0  0  0  0  0  0
    1.3834    2.4585    0.0000 H   0  0  0  0  0  0  0  0  0  0  0  0
    2.0423    3.9385    0.0000 H   0  0  0  0  0  0  0  0  0  0  0  0
  1 26  1  0  0  0  0
  2  4  1  0  0  0  0
  2  7  1  0  0  0  0
  2 11  1  0  0  0  0
  3  4  2  0  0  0  0
  3  8  1  0  0  0  0
  5  6  1  0  0  0  0
  5 15  1  0  0  0  0
  5 35  1  0  0  0  0
  6 14  2  0  0  0  0
  7  8  2  0  0  0  0
  7 13  1  0  0  0  0
  8  9  1  0  0  0  0
  9 12  2  0  0  0  0
  9 16  1  0  0  0  0
 10 12  1  0  0  0  0
 10 14  1  0  0  0  0
 10 15  2  0  0  0  0
 11 17  1  0  0  0  0
 11 30  1  0  0  0  0
 11 31  1  0  0  0  0
 12 32  1  0  0  0  0
 13 19  2  0  0  0  0
 13 20  1  0  0  0  0
 14 18  1  0  0  0  0
 15 21  1  0  0  0  0
 16 18  2  0  0  0  0
 16 33  1  0  0  0  0
 17 22  2  0  0  0  0
 17 23  1  0  0  0  0
 18 34  1  0  0  0  0
 19 24  1  0  0  0  0
 19 36  1  0  0  0  0
 20 25  2  0  0  0  0
 20 37  1  0  0  0  0
 21 38  1  0  0  0  0
 21 39  1  0  0  0  0
 21 40  1  0  0  0  0
 22 27  1  0  0  0  0
 22 41  1  0  0  0  0
 23 28  2  0  0  0  0
 23 42  1  0  0  0  0
 24 26  2  0  0  0  0
 24 43  1  0  0  0  0
 25 26  1  0  0  0  0
 25 44  1  0  0  0  0
 27 29  2  0  0  0  0
 27 45  1  0  0  0  0
 28 29  1  0  0  0  0
 28 46  1  0  0  0  0
 29 47  1  0  0  0  0
M  END
> <PUBCHEM_COMPOUND_CID>
49830464

> <PUBCHEM_COMPOUND_CANONICALIZED>
1

> <PUBCHEM_CACTVS_COMPLEXITY>
533

> <PUBCHEM_CACTVS_HBOND_ACCEPTOR>
4

> <PUBCHEM_CACTVS_HBOND_DONOR>
1

> <PUBCHEM_CACTVS_ROTATABLE_BOND>
4

> <PUBCHEM_CACTVS_SUBSKEYS>
AAADceB7gQAAAAAAAAAAAAAAAAAAAWLAAAAwYMAAAAAAAFgB/AAAHQAYAAAADAjBHgwywPJrAACiAyRiRACSBAQhkgAY+SA4dJgIYKLA0dGUpAhgmADIyAcQgMAOCAACAAACAAAQAAQAAAQAAAAAAAAAAA==

> <PUBCHEM_IUPAC_OPENEYE_NAME>
5-[1-benzyl-5-(4-fluorophenyl)triazol-4-yl]-3-methyl-2H-indazole

> <PUBCHEM_IUPAC_CAS_NAME>
5-[5-(4-fluorophenyl)-1-(phenylmethyl)-4-triazolyl]-3-methyl-2H-indazole

> <PUBCHEM_IUPAC_NAME_MARKUP>
5-[1-benzyl-5-(4-fluorophenyl)triazol-4-yl]-3-methyl-2<I>H</I>-indazole

> <PUBCHEM_IUPAC_NAME>
5-[1-benzyl-5-(4-fluorophenyl)triazol-4-yl]-3-methyl-2H-indazole

> <PUBCHEM_IUPAC_SYSTEMATIC_NAME>
5-[5-(4-fluorophenyl)-1-(phenylmethyl)-1,2,3-triazol-4-yl]-3-methyl-2H-indazole

> <PUBCHEM_IUPAC_TRADITIONAL_NAME>
5-[1-benzyl-5-(4-fluorophenyl)triazol-4-yl]-3-methyl-2H-indazole

> <PUBCHEM_IUPAC_INCHI>
InChI=1S/C23H18FN5/c1-15-20-13-18(9-12-21(20)26-25-15)22-23(17-7-10-19(24)11-8-17)29(28-27-22)14-16-5-3-2-4-6-16/h2-13H,14H2,1H3,(H,25,26)

> <PUBCHEM_IUPAC_INCHIKEY>
SRONQUHCRFZABC-UHFFFAOYSA-N

> <PUBCHEM_XLOGP3_AA>
4.7

> <PUBCHEM_EXACT_MASS>
383.15462376

> <PUBCHEM_MOLECULAR_FORMULA>
C23H18FN5

> <PUBCHEM_MOLECULAR_WEIGHT>
383.4

> <PUBCHEM_SMILES>
CC1=C2C=C(C=CC2=NN1)C3=C(N(N=N3)CC4=CC=CC=C4)C5=CC=C(C=C5)F

> <PUBCHEM_OPENEYE_CAN_SMILES>
CC1=C2C=C(C=CC2=NN1)C3=C(N(N=N3)CC4=CC=CC=C4)C5=CC=C(C=C5)F

> <PUBCHEM_OPENEYE_ISO_SMILES>
CC1=C2C=C(C=CC2=NN1)C3=C(N(N=N3)CC4=CC=CC=C4)C5=CC=C(C=C5)F

> <PUBCHEM_CACTVS_TPSA>
59.4

> <PUBCHEM_MONOISOTOPIC_WEIGHT>
383.15462376

> <PUBCHEM_TOTAL_CHARGE>
0

> <PUBCHEM_HEAVY_ATOM_COUNT>
29

> <PUBCHEM_ATOM_DEF_STEREO_COUNT>
0

> <PUBCHEM_ATOM_UDEF_STEREO_COUNT>
0

> <PUBCHEM_BOND_DEF_STEREO_COUNT>
0

> <PUBCHEM_BOND_UDEF_STEREO_COUNT>
0

> <PUBCHEM_ISOTOPIC_ATOM_COUNT>
0

> <PUBCHEM_COMPONENT_COUNT>
1

> <PUBCHEM_CACTVS_TAUTO_COUNT>
-1

> <PUBCHEM_COORDINATE_TYPE>
1
5
255

> <PUBCHEM_BONDANNOTATIONS>
10  12  8
10  14  8
10  15  8
13  19  8
13  20  8
14  18  8
16  18  8
17  22  8
17  23  8
19  24  8
2  4  8
2  7  8
20  25  8
22  27  8
23  28  8
24  26  8
25  26  8
27  29  8
28  29  8
3  4  8
3  8  8
5  15  8
5  6  8
6  14  8
7  8  8
9  12  8
9  16  8

$$$$
