49831002
  -OEChem-03202503142D

 31 33  0     0  0  0  0  0  0999 V2000
    2.0000    1.2320    0.0000 O   0  5  0  0  0  0  0  0  0  0  0  0
    2.8660    2.7320    0.0000 O   0  0  0  0  0  0  0  0  0  0  0  0
    6.4103    1.5368    0.0000 N   0  0  0  0  0  0  0  0  0  0  0  0
    6.4103   -0.0727    0.0000 N   0  0  0  0  0  0  0  0  0  0  0  0
    7.9939    0.7321    0.0000 N   0  0  0  0  0  0  0  0  0  0  0  0
    9.4939   -0.1340    0.0000 N   0  0  0  0  0  0  0  0  0  0  0  0
    2.8660    1.7320    0.0000 N   0  3  0  0  0  0  0  0  0  0  0  0
    5.4641    1.2320    0.0000 C   0  0  0  0  0  0  0  0  0  0  0  0
    5.4641    0.2321    0.0000 C   0  0  0  0  0  0  0  0  0  0  0  0
    6.9939    0.7321    0.0000 C   0  0  0  0  0  0  0  0  0  0  0  0
    4.5981    1.7320    0.0000 C   0  0  0  0  0  0  0  0  0  0  0  0
    4.5981   -0.2679    0.0000 C   0  0  0  0  0  0  0  0  0  0  0  0
    3.7320    1.2320    0.0000 C   0  0  0  0  0  0  0  0  0  0  0  0
    3.7320    0.2321    0.0000 C   0  0  0  0  0  0  0  0  0  0  0  0
    8.4939   -0.1340    0.0000 C   0  0  0  0  0  0  0  0  0  0  0  0
    7.9939   -1.0000    0.0000 C   0  0  0  0  0  0  0  0  0  0  0  0
    9.4939   -1.8660    0.0000 C   0  0  0  0  0  0  0  0  0  0  0  0
    8.4939   -1.8660    0.0000 C   0  0  0  0  0  0  0  0  0  0  0  0
    9.9939   -1.0000    0.0000 C   0  0  0  0  0  0  0  0  0  0  0  0
    9.9939   -2.7320    0.0000 C   0  0  0  0  0  0  0  0  0  0  0  0
    6.6029    2.1261    0.0000 H   0  0  0  0  0  0  0  0  0  0  0  0
    4.5981    2.3521    0.0000 H   0  0  0  0  0  0  0  0  0  0  0  0
    4.5981   -0.8879    0.0000 H   0  0  0  0  0  0  0  0  0  0  0  0
    8.3039    1.2690    0.0000 H   0  0  0  0  0  0  0  0  0  0  0  0
    3.1951   -0.0779    0.0000 H   0  0  0  0  0  0  0  0  0  0  0  0
    7.3739   -1.0000    0.0000 H   0  0  0  0  0  0  0  0  0  0  0  0
    8.1839   -2.4030    0.0000 H   0  0  0  0  0  0  0  0  0  0  0  0
   10.6139   -1.0000    0.0000 H   0  0  0  0  0  0  0  0  0  0  0  0
    9.4570   -3.0420    0.0000 H   0  0  0  0  0  0  0  0  0  0  0  0
   10.3039   -3.2690    0.0000 H   0  0  0  0  0  0  0  0  0  0  0  0
   10.5309   -2.4220    0.0000 H   0  0  0  0  0  0  0  0  0  0  0  0
  1  7  1  0  0  0  0
  2  7  2  0  0  0  0
  3  8  1  0  0  0  0
  3 10  1  0  0  0  0
  3 21  1  0  0  0  0
  4  9  1  0  0  0  0
  4 10  2  0  0  0  0
  5 10  1  0  0  0  0
  5 15  1  0  0  0  0
  5 24  1  0  0  0  0
  6 15  2  0  0  0  0
  6 19  1  0  0  0  0
  7 13  1  0  0  0  0
  8  9  2  0  0  0  0
  8 11  1  0  0  0  0
  9 12  1  0  0  0  0
 11 13  2  0  0  0  0
 11 22  1  0  0  0  0
 12 14  2  0  0  0  0
 12 23  1  0  0  0  0
 13 14  1  0  0  0  0
 14 25  1  0  0  0  0
 15 16  1  0  0  0  0
 16 18  2  0  0  0  0
 16 26  1  0  0  0  0
 17 18  1  0  0  0  0
 17 19  2  0  0  0  0
 17 20  1  0  0  0  0
 18 27  1  0  0  0  0
 19 28  1  0  0  0  0
 20 29  1  0  0  0  0
 20 30  1  0  0  0  0
 20 31  1  0  0  0  0
M  CHG  2   1  -1   7   1
M  END
> <PUBCHEM_COMPOUND_CID>
49831002

> <PUBCHEM_COMPOUND_CANONICALIZED>
1

> <PUBCHEM_CACTVS_COMPLEXITY>
361

> <PUBCHEM_CACTVS_HBOND_ACCEPTOR>
5

> <PUBCHEM_CACTVS_HBOND_DONOR>
2

> <PUBCHEM_CACTVS_ROTATABLE_BOND>
2

> <PUBCHEM_CACTVS_SUBSKEYS>
AAADccBzsAAAAAAAAAAAAAAAAAAAAWAAAAA8QAAAAAAAAFgB/AAAHAAUAAAADAjBHgQ/8LbZ0AChAzZnZwCCgC2xEqAp2SA4dJqIaOLA2dGUJAhokALIyCcQAAAMAACAAAQAACAAAQAACAAAQAAAAAAAAA==

> <PUBCHEM_IUPAC_OPENEYE_NAME>
N-(5-methyl-2-pyridyl)-6-nitro-1H-benzimidazol-2-amine

> <PUBCHEM_IUPAC_CAS_NAME>
N-(5-methyl-2-pyridinyl)-6-nitro-1H-benzimidazol-2-amine

> <PUBCHEM_IUPAC_NAME_MARKUP>
<I>N</I>-(5-methylpyridin-2-yl)-6-nitro-1<I>H</I>-benzimidazol-2-amine

> <PUBCHEM_IUPAC_NAME>
N-(5-methylpyridin-2-yl)-6-nitro-1H-benzimidazol-2-amine

> <PUBCHEM_IUPAC_SYSTEMATIC_NAME>
N-(5-methylpyridin-2-yl)-6-nitro-1H-benzimidazol-2-amine

> <PUBCHEM_IUPAC_TRADITIONAL_NAME>
(5-methyl-2-pyridyl)-(6-nitro-1H-benzimidazol-2-yl)amine

> <PUBCHEM_IUPAC_INCHI>
InChI=1S/C13H11N5O2/c1-8-2-5-12(14-7-8)17-13-15-10-4-3-9(18(19)20)6-11(10)16-13/h2-7H,1H3,(H2,14,15,16,17)

> <PUBCHEM_IUPAC_INCHIKEY>
SYLTYCLPHHSEIJ-UHFFFAOYSA-N

> <PUBCHEM_XLOGP3_AA>
2.8

> <PUBCHEM_EXACT_MASS>
269.09127461

> <PUBCHEM_MOLECULAR_FORMULA>
C13H11N5O2

> <PUBCHEM_MOLECULAR_WEIGHT>
269.26

> <PUBCHEM_SMILES>
CC1=CN=C(C=C1)NC2=NC3=C(N2)C=C(C=C3)[N+](=O)[O-]

> <PUBCHEM_OPENEYE_CAN_SMILES>
CC1=CN=C(C=C1)NC2=NC3=C(N2)C=C(C=C3)[N+](=O)[O-]

> <PUBCHEM_OPENEYE_ISO_SMILES>
CC1=CN=C(C=C1)NC2=NC3=C(N2)C=C(C=C3)[N+](=O)[O-]

> <PUBCHEM_CACTVS_TPSA>
99.4

> <PUBCHEM_MONOISOTOPIC_WEIGHT>
269.09127461

> <PUBCHEM_TOTAL_CHARGE>
0

> <PUBCHEM_HEAVY_ATOM_COUNT>
20

> <PUBCHEM_ATOM_DEF_STEREO_COUNT>
0

> <PUBCHEM_ATOM_UDEF_STEREO_COUNT>
0

> <PUBCHEM_BOND_DEF_STEREO_COUNT>
0

> <PUBCHEM_BOND_UDEF_STEREO_COUNT>
0

> <PUBCHEM_ISOTOPIC_ATOM_COUNT>
0

> <PUBCHEM_COMPONENT_COUNT>
1

> <PUBCHEM_CACTVS_TAUTO_COUNT>
-1

> <PUBCHEM_COORDINATE_TYPE>
1
5
255

> <PUBCHEM_BONDANNOTATIONS>
11  13  8
12  14  8
13  14  8
15  16  8
16  18  8
17  18  8
17  19  8
3  10  8
3  8  8
4  10  8
4  9  8
6  15  8
6  19  8
8  11  8
8  9  8
9  12  8

$$$$
