11856204
  -OEChem-03202505112D

 46 49  0     0  0  0  0  0  0999 V2000
    2.8660    6.0000    0.0000 Br  0  0  0  0  0  0  0  0  0  0  0  0
    7.2764   -4.3047    0.0000 O   0  0  0  0  0  0  0  0  0  0  0  0
    5.4641   -5.5000    0.0000 O   0  0  0  0  0  0  0  0  0  0  0  0
    3.7320    1.5000    0.0000 O   0  0  0  0  0  0  0  0  0  0  0  0
    7.8600   -3.5000    0.0000 N   0  0  0  0  0  0  0  0  0  0  0  0
    5.4641    1.5000    0.0000 N   0  0  0  0  0  0  0  0  0  0  0  0
    7.5870   -1.7448    0.0000 N   0  0  0  0  0  0  0  0  0  0  0  0
    4.5981    3.0000    0.0000 N   0  0  0  0  0  0  0  0  0  0  0  0
    5.4641   -2.5000    0.0000 C   0  0  0  0  0  0  0  0  0  0  0  0
    6.3301   -3.0000    0.0000 C   0  0  0  0  0  0  0  0  0  0  0  0
    5.4641   -1.5000    0.0000 C   0  0  0  0  0  0  0  0  0  0  0  0
    6.3301   -4.0000    0.0000 C   0  0  0  0  0  0  0  0  0  0  0  0
    4.5981   -3.0000    0.0000 C   0  0  0  0  0  0  0  0  0  0  0  0
    5.4641   -4.5000    0.0000 C   0  0  0  0  0  0  0  0  0  0  0  0
    7.2764   -2.6953    0.0000 C   0  0  0  0  0  0  0  0  0  0  0  0
    4.5981   -4.0000    0.0000 C   0  0  0  0  0  0  0  0  0  0  0  0
    4.5981   -1.0000    0.0000 C   0  0  0  0  0  0  0  0  0  0  0  0
    6.3301   -1.0000    0.0000 C   0  0  0  0  0  0  0  0  0  0  0  0
    5.4641    0.5000    0.0000 C   0  0  0  0  0  0  0  0  0  0  0  0
    4.5981   -0.0000    0.0000 C   0  0  0  0  0  0  0  0  0  0  0  0
    6.3301    0.0000    0.0000 C   0  0  0  0  0  0  0  0  0  0  0  0
    4.5981    2.0000    0.0000 C   0  0  0  0  0  0  0  0  0  0  0  0
    3.7320    3.5000    0.0000 C   0  0  0  0  0  0  0  0  0  0  0  0
    4.5981   -6.0000    0.0000 C   0  0  0  0  0  0  0  0  0  0  0  0
    3.7320    4.5000    0.0000 C   0  0  0  0  0  0  0  0  0  0  0  0
    2.8660    3.0000    0.0000 C   0  0  0  0  0  0  0  0  0  0  0  0
    2.8660    5.0000    0.0000 C   0  0  0  0  0  0  0  0  0  0  0  0
    2.0000    3.5000    0.0000 C   0  0  0  0  0  0  0  0  0  0  0  0
    2.0000    4.5000    0.0000 C   0  0  0  0  0  0  0  0  0  0  0  0
    4.0611   -2.6900    0.0000 H   0  0  0  0  0  0  0  0  0  0  0  0
    4.0611   -4.3100    0.0000 H   0  0  0  0  0  0  0  0  0  0  0  0
    4.0611   -1.3100    0.0000 H   0  0  0  0  0  0  0  0  0  0  0  0
    6.8671   -1.3100    0.0000 H   0  0  0  0  0  0  0  0  0  0  0  0
    4.0611    0.3100    0.0000 H   0  0  0  0  0  0  0  0  0  0  0  0
    6.8671    0.3100    0.0000 H   0  0  0  0  0  0  0  0  0  0  0  0
    6.0010    1.8100    0.0000 H   0  0  0  0  0  0  0  0  0  0  0  0
    8.1937   -1.6169    0.0000 H   0  0  0  0  0  0  0  0  0  0  0  0
    7.1730   -1.2833    0.0000 H   0  0  0  0  0  0  0  0  0  0  0  0
    5.1350    3.3100    0.0000 H   0  0  0  0  0  0  0  0  0  0  0  0
    4.2881   -5.4631    0.0000 H   0  0  0  0  0  0  0  0  0  0  0  0
    4.0611   -6.3100    0.0000 H   0  0  0  0  0  0  0  0  0  0  0  0
    4.9081   -6.5369    0.0000 H   0  0  0  0  0  0  0  0  0  0  0  0
    4.2690    4.8100    0.0000 H   0  0  0  0  0  0  0  0  0  0  0  0
    2.8660    2.3800    0.0000 H   0  0  0  0  0  0  0  0  0  0  0  0
    1.4631    3.1900    0.0000 H   0  0  0  0  0  0  0  0  0  0  0  0
    1.4631    4.8100    0.0000 H   0  0  0  0  0  0  0  0  0  0  0  0
  1 27  1  0  0  0  0
  2  5  1  0  0  0  0
  2 12  1  0  0  0  0
  3 14  1  0  0  0  0
  3 24  1  0  0  0  0
  4 22  2  0  0  0  0
  5 15  2  0  0  0  0
  6 19  1  0  0  0  0
  6 22  1  0  0  0  0
  6 36  1  0  0  0  0
  7 15  1  0  0  0  0
  7 37  1  0  0  0  0
  7 38  1  0  0  0  0
  8 22  1  0  0  0  0
  8 23  1  0  0  0  0
  8 39  1  0  0  0  0
  9 10  2  0  0  0  0
  9 11  1  0  0  0  0
  9 13  1  0  0  0  0
 10 12  1  0  0  0  0
 10 15  1  0  0  0  0
 11 17  2  0  0  0  0
 11 18  1  0  0  0  0
 12 14  2  0  0  0  0
 13 16  2  0  0  0  0
 13 30  1  0  0  0  0
 14 16  1  0  0  0  0
 16 31  1  0  0  0  0
 17 20  1  0  0  0  0
 17 32  1  0  0  0  0
 18 21  2  0  0  0  0
 18 33  1  0  0  0  0
 19 20  2  0  0  0  0
 19 21  1  0  0  0  0
 20 34  1  0  0  0  0
 21 35  1  0  0  0  0
 23 25  2  0  0  0  0
 23 26  1  0  0  0  0
 24 40  1  0  0  0  0
 24 41  1  0  0  0  0
 24 42  1  0  0  0  0
 25 27  1  0  0  0  0
 25 43  1  0  0  0  0
 26 28  2  0  0  0  0
 26 44  1  0  0  0  0
 27 29  2  0  0  0  0
 28 29  1  0  0  0  0
 28 45  1  0  0  0  0
 29 46  1  0  0  0  0
M  END
> <PUBCHEM_COMPOUND_CID>
11856204

> <PUBCHEM_COMPOUND_CANONICALIZED>
1

> <PUBCHEM_CACTVS_COMPLEXITY>
560

> <PUBCHEM_CACTVS_HBOND_ACCEPTOR>
5

> <PUBCHEM_CACTVS_HBOND_DONOR>
3

> <PUBCHEM_CACTVS_ROTATABLE_BOND>
4

> <PUBCHEM_CACTVS_SUBSKEYS>
AAADceB7sAAAEAAAAAAAAAAAAAAAAWAAAAAwYMAAAAAAAFgB9AAAHgBUAAABrAyBmgIz9tLQBACpAqZycgKCCAAlIgQomCFm7PqNJjrEtZ+EMapu1BtK6/e4yPCOqAABAAEYQABQAAIAAjCAAAAAAAAAAA==

> <PUBCHEM_IUPAC_OPENEYE_NAME>
1-[4-(3-amino-7-methoxy-1,2-benzoxazol-4-yl)phenyl]-3-(3-bromophenyl)urea

> <PUBCHEM_IUPAC_CAS_NAME>
1-[4-(3-amino-7-methoxy-1,2-benzoxazol-4-yl)phenyl]-3-(3-bromophenyl)urea

> <PUBCHEM_IUPAC_NAME_MARKUP>
1-[4-(3-amino-7-methoxy-1,2-benzoxazol-4-yl)phenyl]-3-(3-bromophenyl)urea

> <PUBCHEM_IUPAC_NAME>
1-[4-(3-amino-7-methoxy-1,2-benzoxazol-4-yl)phenyl]-3-(3-bromophenyl)urea

> <PUBCHEM_IUPAC_SYSTEMATIC_NAME>
1-[4-(3-azanyl-7-methoxy-1,2-benzoxazol-4-yl)phenyl]-3-(3-bromophenyl)urea

> <PUBCHEM_IUPAC_TRADITIONAL_NAME>
1-[4-(3-amino-7-methoxy-indoxazen-4-yl)phenyl]-3-(3-bromophenyl)urea

> <PUBCHEM_IUPAC_INCHI>
InChI=1S/C21H17BrN4O3/c1-28-17-10-9-16(18-19(17)29-26-20(18)23)12-5-7-14(8-6-12)24-21(27)25-15-4-2-3-13(22)11-15/h2-11H,1H3,(H2,23,26)(H2,24,25,27)

> <PUBCHEM_IUPAC_INCHIKEY>
PUPCRRRSBUYJAD-UHFFFAOYSA-N

> <PUBCHEM_XLOGP3_AA>
4.2

> <PUBCHEM_EXACT_MASS>
452.04840

> <PUBCHEM_MOLECULAR_FORMULA>
C21H17BrN4O3

> <PUBCHEM_MOLECULAR_WEIGHT>
453.3

> <PUBCHEM_SMILES>
COC1=C2C(=C(C=C1)C3=CC=C(C=C3)NC(=O)NC4=CC(=CC=C4)Br)C(=NO2)N

> <PUBCHEM_OPENEYE_CAN_SMILES>
COC1=C2C(=C(C=C1)C3=CC=C(C=C3)NC(=O)NC4=CC(=CC=C4)Br)C(=NO2)N

> <PUBCHEM_OPENEYE_ISO_SMILES>
COC1=C2C(=C(C=C1)C3=CC=C(C=C3)NC(=O)NC4=CC(=CC=C4)Br)C(=NO2)N

> <PUBCHEM_CACTVS_TPSA>
102

> <PUBCHEM_MONOISOTOPIC_WEIGHT>
452.04840

> <PUBCHEM_TOTAL_CHARGE>
0

> <PUBCHEM_HEAVY_ATOM_COUNT>
29

> <PUBCHEM_ATOM_DEF_STEREO_COUNT>
0

> <PUBCHEM_ATOM_UDEF_STEREO_COUNT>
0

> <PUBCHEM_BOND_DEF_STEREO_COUNT>
0

> <PUBCHEM_BOND_UDEF_STEREO_COUNT>
0

> <PUBCHEM_ISOTOPIC_ATOM_COUNT>
0

> <PUBCHEM_COMPONENT_COUNT>
1

> <PUBCHEM_CACTVS_TAUTO_COUNT>
-1

> <PUBCHEM_COORDINATE_TYPE>
1
5
255

> <PUBCHEM_BONDANNOTATIONS>
10  12  8
10  15  8
11  17  8
11  18  8
12  14  8
13  16  8
14  16  8
17  20  8
18  21  8
19  20  8
19  21  8
2  12  8
2  5  8
23  25  8
23  26  8
25  27  8
26  28  8
27  29  8
28  29  8
5  15  8
9  10  8
9  13  8

$$$$
