11156716
  -OEChem-03202501162D

 54 58  0     0  0  0  0  0  0999 V2000
    4.6783   -3.3185    0.0000 S   0  0  0  0  0  0  0  0  0  0  0  0
    8.5458    1.7612    0.0000 F   0  0  0  0  0  0  0  0  0  0  0  0
   10.0991    6.5138    0.0000 F   0  0  0  0  0  0  0  0  0  0  0  0
   10.7389    5.2526    0.0000 F   0  0  0  0  0  0  0  0  0  0  0  0
    8.8379    5.8739    0.0000 F   0  0  0  0  0  0  0  0  0  0  0  0
    7.5673    1.5550    0.0000 O   0  0  0  0  0  0  0  0  0  0  0  0
    2.0000   -2.0138    0.0000 N   0  0  0  0  0  0  0  0  0  0  0  0
    2.8660   -0.5138    0.0000 N   0  0  0  0  0  0  0  0  0  0  0  0
    5.9209    2.0930    0.0000 N   0  0  0  0  0  0  0  0  0  0  0  0
    7.2101    3.2498    0.0000 N   0  0  0  0  0  0  0  0  0  0  0  0
    2.8660   -6.5138    0.0000 N   0  0  0  0  0  0  0  0  0  0  0  0
    3.7320   -2.0138    0.0000 C   0  0  0  0  0  0  0  0  0  0  0  0
    4.6783   -1.7090    0.0000 C   0  0  0  0  0  0  0  0  0  0  0  0
    3.7320   -3.0138    0.0000 C   0  0  0  0  0  0  0  0  0  0  0  0
    4.9889   -0.7585    0.0000 C   0  0  0  0  0  0  0  0  0  0  0  0
    2.8660   -3.5138    0.0000 C   0  0  0  0  0  0  0  0  0  0  0  0
    2.8660   -1.5138    0.0000 C   0  0  0  0  0  0  0  0  0  0  0  0
    5.2619   -2.5138    0.0000 C   0  0  0  0  0  0  0  0  0  0  0  0
    2.8660   -4.5138    0.0000 C   0  0  0  0  0  0  0  0  0  0  0  0
    5.9674   -0.5523    0.0000 C   0  0  0  0  0  0  0  0  0  0  0  0
    4.3211   -0.0142    0.0000 C   0  0  0  0  0  0  0  0  0  0  0  0
    2.0000   -3.0138    0.0000 C   0  0  0  0  0  0  0  0  0  0  0  0
    5.6103    1.1425    0.0000 C   0  0  0  0  0  0  0  0  0  0  0  0
    6.2781    0.3982    0.0000 C   0  0  0  0  0  0  0  0  0  0  0  0
    4.6318    0.9363    0.0000 C   0  0  0  0  0  0  0  0  0  0  0  0
    2.0000   -5.0138    0.0000 C   0  0  0  0  0  0  0  0  0  0  0  0
    3.7320   -5.0138    0.0000 C   0  0  0  0  0  0  0  0  0  0  0  0
    8.1886    3.4560    0.0000 C   0  0  0  0  0  0  0  0  0  0  0  0
    6.8994    2.2993    0.0000 C   0  0  0  0  0  0  0  0  0  0  0  0
    2.0000   -6.0138    0.0000 C   0  0  0  0  0  0  0  0  0  0  0  0
    3.7320   -6.0138    0.0000 C   0  0  0  0  0  0  0  0  0  0  0  0
    9.4778    4.6127    0.0000 C   0  0  0  0  0  0  0  0  0  0  0  0
    8.4993    4.4065    0.0000 C   0  0  0  0  0  0  0  0  0  0  0  0
    8.8564    2.7117    0.0000 C   0  0  0  0  0  0  0  0  0  0  0  0
   10.1456    3.8684    0.0000 C   0  0  0  0  0  0  0  0  0  0  0  0
    9.8349    2.9179    0.0000 C   0  0  0  0  0  0  0  0  0  0  0  0
    9.7884    5.5633    0.0000 C   0  0  0  0  0  0  0  0  0  0  0  0
    5.8819   -2.5138    0.0000 H   0  0  0  0  0  0  0  0  0  0  0  0
    6.3815   -1.0138    0.0000 H   0  0  0  0  0  0  0  0  0  0  0  0
    3.7144   -0.1421    0.0000 H   0  0  0  0  0  0  0  0  0  0  0  0
    1.4631   -3.3238    0.0000 H   0  0  0  0  0  0  0  0  0  0  0  0
    6.8848    0.5261    0.0000 H   0  0  0  0  0  0  0  0  0  0  0  0
    4.2177    1.3978    0.0000 H   0  0  0  0  0  0  0  0  0  0  0  0
    1.4631   -4.7038    0.0000 H   0  0  0  0  0  0  0  0  0  0  0  0
    4.2690   -4.7038    0.0000 H   0  0  0  0  0  0  0  0  0  0  0  0
    2.3291   -0.2038    0.0000 H   0  0  0  0  0  0  0  0  0  0  0  0
    3.4030   -0.2038    0.0000 H   0  0  0  0  0  0  0  0  0  0  0  0
    5.5069    2.5545    0.0000 H   0  0  0  0  0  0  0  0  0  0  0  0
    6.7960    3.7112    0.0000 H   0  0  0  0  0  0  0  0  0  0  0  0
    1.4631   -6.3238    0.0000 H   0  0  0  0  0  0  0  0  0  0  0  0
    4.2690   -6.3238    0.0000 H   0  0  0  0  0  0  0  0  0  0  0  0
    8.0852    4.8680    0.0000 H   0  0  0  0  0  0  0  0  0  0  0  0
   10.7523    3.9963    0.0000 H   0  0  0  0  0  0  0  0  0  0  0  0
   10.2490    2.4564    0.0000 H   0  0  0  0  0  0  0  0  0  0  0  0
  1 14  1  0  0  0  0
  1 18  1  0  0  0  0
  2 34  1  0  0  0  0
  3 37  1  0  0  0  0
  4 37  1  0  0  0  0
  5 37  1  0  0  0  0
  6 29  2  0  0  0  0
  7 17  2  0  0  0  0
  7 22  1  0  0  0  0
  8 17  1  0  0  0  0
  8 46  1  0  0  0  0
  8 47  1  0  0  0  0
  9 23  1  0  0  0  0
  9 29  1  0  0  0  0
  9 48  1  0  0  0  0
 10 28  1  0  0  0  0
 10 29  1  0  0  0  0
 10 49  1  0  0  0  0
 11 30  2  0  0  0  0
 11 31  1  0  0  0  0
 12 13  1  0  0  0  0
 12 14  2  0  0  0  0
 12 17  1  0  0  0  0
 13 15  1  0  0  0  0
 13 18  2  0  0  0  0
 14 16  1  0  0  0  0
 15 20  2  0  0  0  0
 15 21  1  0  0  0  0
 16 19  1  0  0  0  0
 16 22  2  0  0  0  0
 18 38  1  0  0  0  0
 19 26  2  0  0  0  0
 19 27  1  0  0  0  0
 20 24  1  0  0  0  0
 20 39  1  0  0  0  0
 21 25  2  0  0  0  0
 21 40  1  0  0  0  0
 22 41  1  0  0  0  0
 23 24  2  0  0  0  0
 23 25  1  0  0  0  0
 24 42  1  0  0  0  0
 25 43  1  0  0  0  0
 26 30  1  0  0  0  0
 26 44  1  0  0  0  0
 27 31  2  0  0  0  0
 27 45  1  0  0  0  0
 28 33  1  0  0  0  0
 28 34  2  0  0  0  0
 30 50  1  0  0  0  0
 31 51  1  0  0  0  0
 32 33  2  0  0  0  0
 32 35  1  0  0  0  0
 32 37  1  0  0  0  0
 33 52  1  0  0  0  0
 34 36  1  0  0  0  0
 35 36  2  0  0  0  0
 35 53  1  0  0  0  0
 36 54  1  0  0  0  0
M  END
> <PUBCHEM_COMPOUND_CID>
11156716

> <PUBCHEM_COMPOUND_CANONICALIZED>
1

> <PUBCHEM_CACTVS_COMPLEXITY>
777

> <PUBCHEM_CACTVS_HBOND_ACCEPTOR>
9

> <PUBCHEM_CACTVS_HBOND_DONOR>
3

> <PUBCHEM_CACTVS_ROTATABLE_BOND>
4

> <PUBCHEM_CACTVS_SUBSKEYS>
AAADceB7ocBAAAAAAAAAAAAAAAAAASAAAAA8eIEAAAAAAFgB/gAAHwQQAAAADAjFWhy98dLIEAisAjZndACDgKkxCjAI2DA4ZJiIIGLgkZGEIAxolALoyCcQgMAOiAAAQAAAAAAQAACAAAAAAAAAAAAAAA==

> <PUBCHEM_IUPAC_OPENEYE_NAME>
1-[4-[4-amino-7-(4-pyridyl)thieno[3,2-c]pyridin-3-yl]phenyl]-3-[2-fluoro-5-(trifluoromethyl)phenyl]urea

> <PUBCHEM_IUPAC_CAS_NAME>
1-[4-(4-amino-7-pyridin-4-yl-3-thieno[3,2-c]pyridinyl)phenyl]-3-[2-fluoro-5-(trifluoromethyl)phenyl]urea

> <PUBCHEM_IUPAC_NAME_MARKUP>
1-[4-(4-amino-7-pyridin-4-ylthieno[3,2-c]pyridin-3-yl)phenyl]-3-[2-fluoro-5-(trifluoromethyl)phenyl]urea

> <PUBCHEM_IUPAC_NAME>
1-[4-(4-amino-7-pyridin-4-ylthieno[3,2-c]pyridin-3-yl)phenyl]-3-[2-fluoro-5-(trifluoromethyl)phenyl]urea

> <PUBCHEM_IUPAC_SYSTEMATIC_NAME>
1-[4-(4-azanyl-7-pyridin-4-yl-thieno[3,2-c]pyridin-3-yl)phenyl]-3-[2-fluoranyl-5-(trifluoromethyl)phenyl]urea

> <PUBCHEM_IUPAC_TRADITIONAL_NAME>
1-[4-[4-amino-7-(4-pyridyl)thieno[3,2-c]pyridin-3-yl]phenyl]-3-[2-fluoro-5-(trifluoromethyl)phenyl]urea

> <PUBCHEM_IUPAC_INCHI>
InChI=1S/C26H17F4N5OS/c27-20-6-3-16(26(28,29)30)11-21(20)35-25(36)34-17-4-1-14(2-5-17)19-13-37-23-18(12-33-24(31)22(19)23)15-7-9-32-10-8-15/h1-13H,(H2,31,33)(H2,34,35,36)

> <PUBCHEM_IUPAC_INCHIKEY>
KKYPRNBBPBRJQX-UHFFFAOYSA-N

> <PUBCHEM_XLOGP3_AA>
5.3

> <PUBCHEM_EXACT_MASS>
523.10899400

> <PUBCHEM_MOLECULAR_FORMULA>
C26H17F4N5OS

> <PUBCHEM_MOLECULAR_WEIGHT>
523.5

> <PUBCHEM_SMILES>
C1=CC(=CC=C1C2=CSC3=C2C(=NC=C3C4=CC=NC=C4)N)NC(=O)NC5=C(C=CC(=C5)C(F)(F)F)F

> <PUBCHEM_OPENEYE_CAN_SMILES>
C1=CC(=CC=C1C2=CSC3=C2C(=NC=C3C4=CC=NC=C4)N)NC(=O)NC5=C(C=CC(=C5)C(F)(F)F)F

> <PUBCHEM_OPENEYE_ISO_SMILES>
C1=CC(=CC=C1C2=CSC3=C2C(=NC=C3C4=CC=NC=C4)N)NC(=O)NC5=C(C=CC(=C5)C(F)(F)F)F

> <PUBCHEM_CACTVS_TPSA>
121

> <PUBCHEM_MONOISOTOPIC_WEIGHT>
523.10899400

> <PUBCHEM_TOTAL_CHARGE>
0

> <PUBCHEM_HEAVY_ATOM_COUNT>
37

> <PUBCHEM_ATOM_DEF_STEREO_COUNT>
0

> <PUBCHEM_ATOM_UDEF_STEREO_COUNT>
0

> <PUBCHEM_BOND_DEF_STEREO_COUNT>
0

> <PUBCHEM_BOND_UDEF_STEREO_COUNT>
0

> <PUBCHEM_ISOTOPIC_ATOM_COUNT>
0

> <PUBCHEM_COMPONENT_COUNT>
1

> <PUBCHEM_CACTVS_TAUTO_COUNT>
-1

> <PUBCHEM_COORDINATE_TYPE>
1
5
255

> <PUBCHEM_BONDANNOTATIONS>
1  14  8
1  18  8
11  30  8
11  31  8
12  13  8
12  14  8
12  17  8
13  18  8
14  16  8
15  20  8
15  21  8
16  22  8
19  26  8
19  27  8
20  24  8
21  25  8
23  24  8
23  25  8
26  30  8
27  31  8
28  33  8
28  34  8
32  33  8
32  35  8
34  36  8
35  36  8
7  17  8
7  22  8

$$$$
