14802492
  -OEChem-03202506202D

188189  0     1  0  0  0  0  0999 V2000
    5.9344   -5.2927    0.0000 S   0  0  0  0  0  0  0  0  0  0  0  0
   12.4651    4.2073    0.0000 O   0  0  0  0  0  0  0  0  0  0  0  0
   15.1972    1.7073    0.0000 O   0  0  0  0  0  0  0  0  0  0  0  0
    9.7331    1.7073    0.0000 O   0  0  0  0  0  0  0  0  0  0  0  0
   14.7286   -5.2927    0.0000 O   0  0  0  0  0  0  0  0  0  0  0  0
    7.0010    4.2073    0.0000 O   0  0  0  0  0  0  0  0  0  0  0  0
   11.9965   -2.7927    0.0000 O   0  0  0  0  0  0  0  0  0  0  0  0
    3.4030    3.2073    0.0000 O   0  0  0  0  0  0  0  0  0  0  0  0
   10.2645   -5.7927    0.0000 O   0  0  0  0  0  0  0  0  0  0  0  0
    4.2690    1.7073    0.0000 O   0  0  0  0  0  0  0  0  0  0  0  0
   11.1305   -2.2927    0.0000 O   0  0  0  0  0  0  0  0  0  0  0  0
    4.9344   -5.2927    0.0000 O   0  0  0  0  0  0  0  0  0  0  0  0
    6.9344   -5.2927    0.0000 O   0  0  0  0  0  0  0  0  0  0  0  0
   14.1972    3.2073    0.0000 N   0  0  0  0  0  0  0  0  0  0  0  0
   11.4651    2.7073    0.0000 N   0  0  0  0  0  0  0  0  0  0  0  0
   16.9292    2.7073    0.0000 N   0  0  0  0  0  0  0  0  0  0  0  0
    8.7331    3.2073    0.0000 N   0  0  0  0  0  0  0  0  0  0  0  0
   12.9965   -4.2927    0.0000 N   0  0  0  0  0  0  0  0  0  0  0  0
    6.0010    2.7073    0.0000 N   0  0  0  0  0  0  0  0  0  0  0  0
   10.7331    1.2073    0.0000 N   0  0  0  0  0  0  0  0  0  0  0  0
    8.8671    6.2073    0.0000 N   0  0  0  0  0  0  0  0  0  0  0  0
   17.7953    6.2073    0.0000 N   0  0  0  0  0  0  0  0  0  0  0  0
   10.2645   -3.7927    0.0000 N   0  0  0  0  0  0  0  0  0  0  0  0
    5.2690    1.2073    0.0000 N   0  0  0  0  0  0  0  0  0  0  0  0
   16.4606   -2.2927    0.0000 N   0  0  0  0  0  0  0  0  0  0  0  0
    3.4030    6.2073    0.0000 N   0  0  0  0  0  0  0  0  0  0  0  0
    7.6664   -2.2927    0.0000 N   0  0  0  0  0  0  0  0  0  0  0  0
    9.8671   -0.2927    0.0000 N   0  0  0  0  0  0  0  0  0  0  0  0
   11.5991   -0.2927    0.0000 N   0  0  0  0  0  0  0  0  0  0  0  0
    8.0010    7.7073    0.0000 N   0  0  0  0  0  0  0  0  0  0  0  0
    9.7331    7.7073    0.0000 N   0  0  0  0  0  0  0  0  0  0  0  0
   18.6613    7.7073    0.0000 N   0  0  0  0  0  0  0  0  0  0  0  0
   16.9292    7.7073    0.0000 N   0  0  0  0  0  0  0  0  0  0  0  0
    4.4030   -0.2927    0.0000 N   0  0  0  0  0  0  0  0  0  0  0  0
    6.1350   -0.2927    0.0000 N   0  0  0  0  0  0  0  0  0  0  0  0
   18.1927   -2.2927    0.0000 N   0  0  0  0  0  0  0  0  0  0  0  0
   17.3267   -3.7927    0.0000 N   0  0  0  0  0  0  0  0  0  0  0  0
    5.9344   -4.2927    0.0000 N   0  0  0  0  0  0  0  0  0  0  0  0
    2.5369    7.7073    0.0000 N   0  0  0  0  0  0  0  0  0  0  0  0
    4.2690    7.7073    0.0000 N   0  0  0  0  0  0  0  0  0  0  0  0
    3.2683   -7.8135    0.0000 N   0  0  0  0  0  0  0  0  0  0  0  0
   13.3312    2.7073    0.0000 C   0  0  1  0  0  0  0  0  0  0  0  0
   10.5991    3.2073    0.0000 C   0  0  1  0  0  0  0  0  0  0  0  0
   16.0632    3.2073    0.0000 C   0  0  1  0  0  0  0  0  0  0  0  0
   13.3312    1.7073    0.0000 C   0  0  0  0  0  0  0  0  0  0  0  0
   10.5991    4.2073    0.0000 C   0  0  0  0  0  0  0  0  0  0  0  0
   16.0632    4.2073    0.0000 C   0  0  0  0  0  0  0  0  0  0  0  0
    7.8671    2.7073    0.0000 C   0  0  1  0  0  0  0  0  0  0  0  0
   12.4651    3.2073    0.0000 C   0  0  0  0  0  0  0  0  0  0  0  0
   15.1972    2.7073    0.0000 C   0  0  0  0  0  0  0  0  0  0  0  0
    9.7331    2.7073    0.0000 C   0  0  0  0  0  0  0  0  0  0  0  0
   13.8626   -3.7927    0.0000 C   0  0  1  0  0  0  0  0  0  0  0  0
   12.4651    1.2073    0.0000 C   0  0  0  0  0  0  0  0  0  0  0  0
    7.8671    1.7073    0.0000 C   0  0  0  0  0  0  0  0  0  0  0  0
    9.7331    4.7073    0.0000 C   0  0  0  0  0  0  0  0  0  0  0  0
   16.9292    4.7073    0.0000 C   0  0  0  0  0  0  0  0  0  0  0  0
   13.8626   -2.7927    0.0000 C   0  0  0  0  0  0  0  0  0  0  0  0
   14.7286   -4.2927    0.0000 C   0  0  0  0  0  0  0  0  0  0  0  0
    7.0010    1.2073    0.0000 C   0  0  0  0  0  0  0  0  0  0  0  0
    7.0010    3.2073    0.0000 C   0  0  0  0  0  0  0  0  0  0  0  0
   11.5991    1.7073    0.0000 C   0  0  0  0  0  0  0  0  0  0  0  0
   14.7286   -2.2927    0.0000 C   0  0  0  0  0  0  0  0  0  0  0  0
    9.7331    5.7073    0.0000 C   0  0  0  0  0  0  0  0  0  0  0  0
    5.1350    3.2073    0.0000 C   0  0  1  0  0  0  0  0  0  0  0  0
   16.9292    5.7073    0.0000 C   0  0  0  0  0  0  0  0  0  0  0  0
    5.1350    4.2073    0.0000 C   0  0  0  0  0  0  0  0  0  0  0  0
    6.1350    1.7073    0.0000 C   0  0  0  0  0  0  0  0  0  0  0  0
   11.9965   -3.7927    0.0000 C   0  0  0  0  0  0  0  0  0  0  0  0
   15.5946   -2.7927    0.0000 C   0  0  0  0  0  0  0  0  0  0  0  0
   11.1305   -4.2927    0.0000 C   0  0  2  0  0  0  0  0  0  0  0  0
    4.2690    4.7073    0.0000 C   0  0  0  0  0  0  0  0  0  0  0  0
    4.2690    2.7073    0.0000 C   0  0  0  0  0  0  0  0  0  0  0  0
   11.1305   -5.2927    0.0000 C   0  0  0  0  0  0  0  0  0  0  0  0
    4.2690    5.7073    0.0000 C   0  0  0  0  0  0  0  0  0  0  0  0
   10.7331    0.2073    0.0000 C   0  0  0  0  0  0  0  0  0  0  0  0
   10.2645   -2.7927    0.0000 C   0  0  0  0  0  0  0  0  0  0  0  0
    8.8671    7.2073    0.0000 C   0  0  0  0  0  0  0  0  0  0  0  0
   17.7953    7.2073    0.0000 C   0  0  0  0  0  0  0  0  0  0  0  0
    9.3985   -2.2927    0.0000 C   0  0  0  0  0  0  0  0  0  0  0  0
    5.2690    0.2073    0.0000 C   0  0  0  0  0  0  0  0  0  0  0  0
    8.5324   -2.7927    0.0000 C   0  0  0  0  0  0  0  0  0  0  0  0
   17.3267   -2.7927    0.0000 C   0  0  0  0  0  0  0  0  0  0  0  0
    6.8004   -2.7927    0.0000 C   0  0  0  0  0  0  0  0  0  0  0  0
    3.4030    7.2073    0.0000 C   0  0  0  0  0  0  0  0  0  0  0  0
    6.8004   -3.7927    0.0000 C   0  0  0  0  0  0  0  0  0  0  0  0
    5.9344   -6.2927    0.0000 C   0  0  0  0  0  0  0  0  0  0  0  0
    5.0683   -6.7927    0.0000 C   0  0  0  0  0  0  0  0  0  0  0  0
    6.8004   -6.7927    0.0000 C   0  0  0  0  0  0  0  0  0  0  0  0
    5.0683   -7.7927    0.0000 C   0  0  0  0  0  0  0  0  0  0  0  0
    6.8004   -7.7927    0.0000 C   0  0  0  0  0  0  0  0  0  0  0  0
    5.9344   -8.2927    0.0000 C   0  0  0  0  0  0  0  0  0  0  0  0
    4.1744   -6.2580    0.0000 C   0  0  0  0  0  0  0  0  0  0  0  0
    4.1744   -8.3273    0.0000 C   0  0  0  0  0  0  0  0  0  0  0  0
    3.2683   -6.7719    0.0000 C   0  0  0  0  0  0  0  0  0  0  0  0
   13.8681    2.3973    0.0000 H   0  0  0  0  0  0  0  0  0  0  0  0
   11.1360    3.5173    0.0000 H   0  0  0  0  0  0  0  0  0  0  0  0
   16.0632    2.5873    0.0000 H   0  0  0  0  0  0  0  0  0  0  0  0
   13.5432    1.1247    0.0000 H   0  0  0  0  0  0  0  0  0  0  0  0
   13.9417    1.8150    0.0000 H   0  0  0  0  0  0  0  0  0  0  0  0
   11.2097    4.0997    0.0000 H   0  0  0  0  0  0  0  0  0  0  0  0
   10.8112    4.7899    0.0000 H   0  0  0  0  0  0  0  0  0  0  0  0
   15.8512    4.7899    0.0000 H   0  0  0  0  0  0  0  0  0  0  0  0
   15.4526    4.0997    0.0000 H   0  0  0  0  0  0  0  0  0  0  0  0
    7.8671    3.3273    0.0000 H   0  0  0  0  0  0  0  0  0  0  0  0
   14.7341    3.5173    0.0000 H   0  0  0  0  0  0  0  0  0  0  0  0
   12.0021    2.3973    0.0000 H   0  0  0  0  0  0  0  0  0  0  0  0
   13.3256   -3.4827    0.0000 H   0  0  0  0  0  0  0  0  0  0  0  0
   12.0666    0.7324    0.0000 H   0  0  0  0  0  0  0  0  0  0  0  0
   12.8637    0.7324    0.0000 H   0  0  0  0  0  0  0  0  0  0  0  0
    8.0791    1.1247    0.0000 H   0  0  0  0  0  0  0  0  0  0  0  0
    8.4776    1.8150    0.0000 H   0  0  0  0  0  0  0  0  0  0  0  0
   17.4662    2.3973    0.0000 H   0  0  0  0  0  0  0  0  0  0  0  0
    9.1225    4.8150    0.0000 H   0  0  0  0  0  0  0  0  0  0  0  0
    9.5210    4.1247    0.0000 H   0  0  0  0  0  0  0  0  0  0  0  0
    9.2700    3.5173    0.0000 H   0  0  0  0  0  0  0  0  0  0  0  0
   17.1413    4.1247    0.0000 H   0  0  0  0  0  0  0  0  0  0  0  0
   17.5398    4.8150    0.0000 H   0  0  0  0  0  0  0  0  0  0  0  0
   13.6505   -2.2101    0.0000 H   0  0  0  0  0  0  0  0  0  0  0  0
   13.2520   -2.9003    0.0000 H   0  0  0  0  0  0  0  0  0  0  0  0
    6.6025    0.7324    0.0000 H   0  0  0  0  0  0  0  0  0  0  0  0
    7.3996    0.7324    0.0000 H   0  0  0  0  0  0  0  0  0  0  0  0
   11.9976    2.1823    0.0000 H   0  0  0  0  0  0  0  0  0  0  0  0
   11.2006    2.1823    0.0000 H   0  0  0  0  0  0  0  0  0  0  0  0
   15.1271   -1.8177    0.0000 H   0  0  0  0  0  0  0  0  0  0  0  0
   14.3301   -1.8177    0.0000 H   0  0  0  0  0  0  0  0  0  0  0  0
   10.3437    5.5997    0.0000 H   0  0  0  0  0  0  0  0  0  0  0  0
    9.9451    6.2899    0.0000 H   0  0  0  0  0  0  0  0  0  0  0  0
   13.5335   -4.6027    0.0000 H   0  0  0  0  0  0  0  0  0  0  0  0
    5.6720    3.5173    0.0000 H   0  0  0  0  0  0  0  0  0  0  0  0
   16.7172    6.2899    0.0000 H   0  0  0  0  0  0  0  0  0  0  0  0
   16.3187    5.5997    0.0000 H   0  0  0  0  0  0  0  0  0  0  0  0
    6.5380    2.3973    0.0000 H   0  0  0  0  0  0  0  0  0  0  0  0
    5.7456    4.0997    0.0000 H   0  0  0  0  0  0  0  0  0  0  0  0
    5.3471    4.7899    0.0000 H   0  0  0  0  0  0  0  0  0  0  0  0
    6.5335    2.1823    0.0000 H   0  0  0  0  0  0  0  0  0  0  0  0
    5.7365    2.1823    0.0000 H   0  0  0  0  0  0  0  0  0  0  0  0
   15.1961   -3.2676    0.0000 H   0  0  0  0  0  0  0  0  0  0  0  0
   15.9931   -3.2676    0.0000 H   0  0  0  0  0  0  0  0  0  0  0  0
   11.1305   -3.6727    0.0000 H   0  0  0  0  0  0  0  0  0  0  0  0
    3.6584    4.8150    0.0000 H   0  0  0  0  0  0  0  0  0  0  0  0
    4.0569    4.1247    0.0000 H   0  0  0  0  0  0  0  0  0  0  0  0
   11.3426   -5.8753    0.0000 H   0  0  0  0  0  0  0  0  0  0  0  0
   11.7411   -5.1850    0.0000 H   0  0  0  0  0  0  0  0  0  0  0  0
    4.8796    5.5997    0.0000 H   0  0  0  0  0  0  0  0  0  0  0  0
    4.4810    6.2899    0.0000 H   0  0  0  0  0  0  0  0  0  0  0  0
   10.8014   -4.1027    0.0000 H   0  0  0  0  0  0  0  0  0  0  0  0
    9.7970   -1.8177    0.0000 H   0  0  0  0  0  0  0  0  0  0  0  0
    8.9999   -1.8177    0.0000 H   0  0  0  0  0  0  0  0  0  0  0  0
    2.8660    2.8973    0.0000 H   0  0  0  0  0  0  0  0  0  0  0  0
    8.1339   -3.2676    0.0000 H   0  0  0  0  0  0  0  0  0  0  0  0
    8.9310   -3.2676    0.0000 H   0  0  0  0  0  0  0  0  0  0  0  0
   10.2645   -6.4127    0.0000 H   0  0  0  0  0  0  0  0  0  0  0  0
    7.6664   -1.6727    0.0000 H   0  0  0  0  0  0  0  0  0  0  0  0
    9.8671   -0.9127    0.0000 H   0  0  0  0  0  0  0  0  0  0  0  0
    9.3301    0.0173    0.0000 H   0  0  0  0  0  0  0  0  0  0  0  0
   11.5991   -0.9127    0.0000 H   0  0  0  0  0  0  0  0  0  0  0  0
   12.1360    0.0173    0.0000 H   0  0  0  0  0  0  0  0  0  0  0  0
    6.5883   -2.2101    0.0000 H   0  0  0  0  0  0  0  0  0  0  0  0
    6.1898   -2.9003    0.0000 H   0  0  0  0  0  0  0  0  0  0  0  0
    8.0010    8.3273    0.0000 H   0  0  0  0  0  0  0  0  0  0  0  0
    7.4641    7.3973    0.0000 H   0  0  0  0  0  0  0  0  0  0  0  0
    9.7331    8.3273    0.0000 H   0  0  0  0  0  0  0  0  0  0  0  0
   10.2700    7.3973    0.0000 H   0  0  0  0  0  0  0  0  0  0  0  0
   18.6613    8.3273    0.0000 H   0  0  0  0  0  0  0  0  0  0  0  0
   19.1982    7.3973    0.0000 H   0  0  0  0  0  0  0  0  0  0  0  0
   16.9292    8.3273    0.0000 H   0  0  0  0  0  0  0  0  0  0  0  0
   16.3923    7.3973    0.0000 H   0  0  0  0  0  0  0  0  0  0  0  0
    7.0124   -4.3753    0.0000 H   0  0  0  0  0  0  0  0  0  0  0  0
    7.4110   -3.6850    0.0000 H   0  0  0  0  0  0  0  0  0  0  0  0
    3.8660    0.0173    0.0000 H   0  0  0  0  0  0  0  0  0  0  0  0
    4.4030   -0.9127    0.0000 H   0  0  0  0  0  0  0  0  0  0  0  0
    6.6720    0.0173    0.0000 H   0  0  0  0  0  0  0  0  0  0  0  0
    6.1350   -0.9127    0.0000 H   0  0  0  0  0  0  0  0  0  0  0  0
   18.7296   -2.6027    0.0000 H   0  0  0  0  0  0  0  0  0  0  0  0
   18.1927   -1.6727    0.0000 H   0  0  0  0  0  0  0  0  0  0  0  0
   17.8636   -4.1027    0.0000 H   0  0  0  0  0  0  0  0  0  0  0  0
   16.7897   -4.1027    0.0000 H   0  0  0  0  0  0  0  0  0  0  0  0
    5.3974   -3.9827    0.0000 H   0  0  0  0  0  0  0  0  0  0  0  0
    2.5369    8.3273    0.0000 H   0  0  0  0  0  0  0  0  0  0  0  0
    2.0000    7.3973    0.0000 H   0  0  0  0  0  0  0  0  0  0  0  0
    4.2690    8.3273    0.0000 H   0  0  0  0  0  0  0  0  0  0  0  0
    4.8059    7.3973    0.0000 H   0  0  0  0  0  0  0  0  0  0  0  0
    7.3373   -6.4827    0.0000 H   0  0  0  0  0  0  0  0  0  0  0  0
    7.3373   -8.1027    0.0000 H   0  0  0  0  0  0  0  0  0  0  0  0
    5.9344   -8.9127    0.0000 H   0  0  0  0  0  0  0  0  0  0  0  0
    4.1816   -5.6380    0.0000 H   0  0  0  0  0  0  0  0  0  0  0  0
    4.1816   -8.9473    0.0000 H   0  0  0  0  0  0  0  0  0  0  0  0
    2.7326   -6.4598    0.0000 H   0  0  0  0  0  0  0  0  0  0  0  0
  1 12  2  0  0  0  0
  1 13  2  0  0  0  0
  1 38  1  0  0  0  0
  1 86  1  0  0  0  0
  2 49  2  0  0  0  0
  3 50  2  0  0  0  0
  4 51  2  0  0  0  0
  5 58  2  0  0  0  0
  6 60  2  0  0  0  0
  7 68  2  0  0  0  0
  8 72  1  0  0  0  0
  8149  1  0  0  0  0
  9 73  1  0  0  0  0
  9152  1  0  0  0  0
 10 72  2  0  0  0  0
 11 76  2  0  0  0  0
 42 14  1  1  0  0  0
 14 50  1  0  0  0  0
 14105  1  0  0  0  0
 43 15  1  6  0  0  0
 15 49  1  0  0  0  0
 15106  1  0  0  0  0
 44 16  1  6  0  0  0
 16 58  1  0  0  0  0
 16112  1  0  0  0  0
 48 17  1  1  0  0  0
 17 51  1  0  0  0  0
 17115  1  0  0  0  0
 52 18  1  1  0  0  0
 18 68  1  0  0  0  0
 18128  1  0  0  0  0
 19 60  1  0  0  0  0
 64 19  1  6  0  0  0
 19132  1  0  0  0  0
 20 61  1  0  0  0  0
 20 75  2  0  0  0  0
 21 63  1  0  0  0  0
 21 77  2  0  0  0  0
 22 65  1  0  0  0  0
 22 78  2  0  0  0  0
 70 23  1  6  0  0  0
 23 76  1  0  0  0  0
 23146  1  0  0  0  0
 24 67  1  0  0  0  0
 24 80  2  0  0  0  0
 25 69  1  0  0  0  0
 25 82  2  0  0  0  0
 26 74  1  0  0  0  0
 26 84  2  0  0  0  0
 27 81  1  0  0  0  0
 27 83  1  0  0  0  0
 27153  1  0  0  0  0
 28 75  1  0  0  0  0
 28154  1  0  0  0  0
 28155  1  0  0  0  0
 29 75  1  0  0  0  0
 29156  1  0  0  0  0
 29157  1  0  0  0  0
 30 77  1  0  0  0  0
 30160  1  0  0  0  0
 30161  1  0  0  0  0
 31 77  1  0  0  0  0
 31162  1  0  0  0  0
 31163  1  0  0  0  0
 32 78  1  0  0  0  0
 32164  1  0  0  0  0
 32165  1  0  0  0  0
 33 78  1  0  0  0  0
 33166  1  0  0  0  0
 33167  1  0  0  0  0
 34 80  1  0  0  0  0
 34170  1  0  0  0  0
 34171  1  0  0  0  0
 35 80  1  0  0  0  0
 35172  1  0  0  0  0
 35173  1  0  0  0  0
 36 82  1  0  0  0  0
 36174  1  0  0  0  0
 36175  1  0  0  0  0
 37 82  1  0  0  0  0
 37176  1  0  0  0  0
 37177  1  0  0  0  0
 38 85  1  0  0  0  0
 38178  1  0  0  0  0
 39 84  1  0  0  0  0
 39179  1  0  0  0  0
 39180  1  0  0  0  0
 40 84  1  0  0  0  0
 40181  1  0  0  0  0
 40182  1  0  0  0  0
 41 93  2  0  0  0  0
 41 94  1  0  0  0  0
 42 45  1  0  0  0  0
 42 49  1  0  0  0  0
 42 95  1  0  0  0  0
 43 46  1  0  0  0  0
 43 51  1  0  0  0  0
 43 96  1  0  0  0  0
 44 47  1  0  0  0  0
 44 50  1  0  0  0  0
 44 97  1  0  0  0  0
 45 53  1  0  0  0  0
 45 98  1  0  0  0  0
 45 99  1  0  0  0  0
 46 55  1  0  0  0  0
 46100  1  0  0  0  0
 46101  1  0  0  0  0
 47 56  1  0  0  0  0
 47102  1  0  0  0  0
 47103  1  0  0  0  0
 48 54  1  0  0  0  0
 48 60  1  0  0  0  0
 48104  1  0  0  0  0
 52 57  1  0  0  0  0
 52 58  1  0  0  0  0
 52107  1  0  0  0  0
 53 61  1  0  0  0  0
 53108  1  0  0  0  0
 53109  1  0  0  0  0
 54 59  1  0  0  0  0
 54110  1  0  0  0  0
 54111  1  0  0  0  0
 55 63  1  0  0  0  0
 55113  1  0  0  0  0
 55114  1  0  0  0  0
 56 65  1  0  0  0  0
 56116  1  0  0  0  0
 56117  1  0  0  0  0
 57 62  1  0  0  0  0
 57118  1  0  0  0  0
 57119  1  0  0  0  0
 59 67  1  0  0  0  0
 59120  1  0  0  0  0
 59121  1  0  0  0  0
 61122  1  0  0  0  0
 61123  1  0  0  0  0
 62 69  1  0  0  0  0
 62124  1  0  0  0  0
 62125  1  0  0  0  0
 63126  1  0  0  0  0
 63127  1  0  0  0  0
 64 66  1  0  0  0  0
 64 72  1  0  0  0  0
 64129  1  0  0  0  0
 65130  1  0  0  0  0
 65131  1  0  0  0  0
 66 71  1  0  0  0  0
 66133  1  0  0  0  0
 66134  1  0  0  0  0
 67135  1  0  0  0  0
 67136  1  0  0  0  0
 68 70  1  0  0  0  0
 69137  1  0  0  0  0
 69138  1  0  0  0  0
 70 73  1  0  0  0  0
 70139  1  0  0  0  0
 71 74  1  0  0  0  0
 71140  1  0  0  0  0
 71141  1  0  0  0  0
 73142  1  0  0  0  0
 73143  1  0  0  0  0
 74144  1  0  0  0  0
 74145  1  0  0  0  0
 76 79  1  0  0  0  0
 79 81  1  0  0  0  0
 79147  1  0  0  0  0
 79148  1  0  0  0  0
 81150  1  0  0  0  0
 81151  1  0  0  0  0
 83 85  1  0  0  0  0
 83158  1  0  0  0  0
 83159  1  0  0  0  0
 85168  1  0  0  0  0
 85169  1  0  0  0  0
 86 87  1  0  0  0  0
 86 88  2  0  0  0  0
 87 89  2  0  0  0  0
 87 92  1  0  0  0  0
 88 90  1  0  0  0  0
 88183  1  0  0  0  0
 89 91  1  0  0  0  0
 89 93  1  0  0  0  0
 90 91  2  0  0  0  0
 90184  1  0  0  0  0
 91185  1  0  0  0  0
 92 94  2  0  0  0  0
 92186  1  0  0  0  0
 93187  1  0  0  0  0
 94188  1  0  0  0  0
M  END
> <PUBCHEM_COMPOUND_CID>
14802492

> <PUBCHEM_COMPOUND_CANONICALIZED>
1

> <PUBCHEM_CACTVS_COMPLEXITY>
2710

> <PUBCHEM_CACTVS_HBOND_ACCEPTOR>
21

> <PUBCHEM_CACTVS_HBOND_DONOR>
23

> <PUBCHEM_CACTVS_ROTATABLE_BOND>
47

> <PUBCHEM_CACTVS_SUBSKEYS>
AAADcfB//ABAAAAAAAAAAAAAAAAAAAAAAAA8QAAAAAAAAACx8AAAHgQQSAAADCjh2gY9idLIEgKoAjH3fHDCgDExAiAI2Lm4ZJgKcP7A0bGUYAhmtgDYyAeYkYAOgAAAgAAUAAAAAAEAACgAAAAAAAAAAA==

> <PUBCHEM_IUPAC_OPENEYE_NAME>
(2S)-5-guanidino-2-[[(2S)-5-guanidino-2-[[(2S)-5-guanidino-2-[[(2S)-5-guanidino-2-[[(2S)-5-guanidino-2-[[(2S)-5-guanidino-2-[[(2S)-3-hydroxy-2-[3-[2-(5-isoquinolylsulfonylamino)ethylamino]propanoylamino]propanoyl]amino]pentanoyl]amino]pentanoyl]amino]pentanoyl]amino]pentanoyl]amino]pentanoyl]amino]pentanoic acid

> <PUBCHEM_IUPAC_CAS_NAME>
(2S)-5-(diaminomethylideneamino)-2-[[(2S)-5-(diaminomethylideneamino)-2-[[(2S)-5-(diaminomethylideneamino)-2-[[(2S)-5-(diaminomethylideneamino)-2-[[(2S)-5-(diaminomethylideneamino)-2-[[(2S)-5-(diaminomethylideneamino)-2-[[(2S)-3-hydroxy-2-[[3-[2-(5-isoquinolinylsulfonylamino)ethylamino]-1-oxopropyl]amino]-1-oxopropyl]amino]-1-oxopentyl]amino]-1-oxopentyl]amino]-1-oxopentyl]amino]-1-oxopentyl]amino]-1-oxopentyl]amino]pentanoic acid

> <PUBCHEM_IUPAC_NAME_MARKUP>
(2<I>S</I>)-5-(diaminomethylideneamino)-2-[[(2<I>S</I>)-5-(diaminomethylideneamino)-2-[[(2<I>S</I>)-5-(diaminomethylideneamino)-2-[[(2<I>S</I>)-5-(diaminomethylideneamino)-2-[[(2<I>S</I>)-5-(diaminomethylideneamino)-2-[[(2<I>S</I>)-5-(diaminomethylideneamino)-2-[[(2<I>S</I>)-3-hydroxy-2-[3-[2-(isoquinolin-5-ylsulfonylamino)ethylamino]propanoylamino]propanoyl]amino]pentanoyl]amino]pentanoyl]amino]pentanoyl]amino]pentanoyl]amino]pentanoyl]amino]pentanoic acid

> <PUBCHEM_IUPAC_NAME>
(2S)-5-(diaminomethylideneamino)-2-[[(2S)-5-(diaminomethylideneamino)-2-[[(2S)-5-(diaminomethylideneamino)-2-[[(2S)-5-(diaminomethylideneamino)-2-[[(2S)-5-(diaminomethylideneamino)-2-[[(2S)-5-(diaminomethylideneamino)-2-[[(2S)-3-hydroxy-2-[3-[2-(isoquinolin-5-ylsulfonylamino)ethylamino]propanoylamino]propanoyl]amino]pentanoyl]amino]pentanoyl]amino]pentanoyl]amino]pentanoyl]amino]pentanoyl]amino]pentanoic acid

> <PUBCHEM_IUPAC_SYSTEMATIC_NAME>
(2S)-5-[bis(azanyl)methylideneamino]-2-[[(2S)-5-[bis(azanyl)methylideneamino]-2-[[(2S)-5-[bis(azanyl)methylideneamino]-2-[[(2S)-5-[bis(azanyl)methylideneamino]-2-[[(2S)-5-[bis(azanyl)methylideneamino]-2-[[(2S)-5-[bis(azanyl)methylideneamino]-2-[[(2S)-2-[3-[2-(isoquinolin-5-ylsulfonylamino)ethylamino]propanoylamino]-3-oxidanyl-propanoyl]amino]pentanoyl]amino]pentanoyl]amino]pentanoyl]amino]pentanoyl]amino]pentanoyl]amino]pentanoic acid

> <PUBCHEM_IUPAC_TRADITIONAL_NAME>
(2S)-5-guanidino-2-[[(2S)-5-guanidino-2-[[(2S)-5-guanidino-2-[[(2S)-5-guanidino-2-[[(2S)-5-guanidino-2-[[(2S)-5-guanidino-2-[[(2S)-3-hydroxy-2-[3-[2-(5-isoquinolylsulfonylamino)ethylamino]propanoylamino]propanoyl]amino]pentanoyl]amino]pentanoyl]amino]pentanoyl]amino]pentanoyl]amino]pentanoyl]amino]valeric acid

> <PUBCHEM_IUPAC_INCHI>
InChI=1S/C53H94N28O12S/c54-48(55)68-18-2-9-32(41(84)77-34(11-4-20-70-50(58)59)43(86)79-36(13-6-22-72-52(62)63)45(88)81-37(47(90)91)14-7-23-73-53(64)65)76-42(85)33(10-3-19-69-49(56)57)78-44(87)35(12-5-21-71-51(60)61)80-46(89)38(29-82)75-40(83)17-25-66-26-27-74-94(92,93)39-15-1-8-30-28-67-24-16-31(30)39/h1,8,15-16,24,28,32-38,66,74,82H,2-7,9-14,17-23,25-27,29H2,(H,75,83)(H,76,85)(H,77,84)(H,78,87)(H,79,86)(H,80,89)(H,81,88)(H,90,91)(H4,54,55,68)(H4,56,57,69)(H4,58,59,70)(H4,60,61,71)(H4,62,63,72)(H4,64,65,73)/t32-,33-,34-,35-,36-,37-,38-/m0/s1

> <PUBCHEM_IUPAC_INCHIKEY>
JHKZENPNLYAVCT-CXWHUAPYSA-N

> <PUBCHEM_XLOGP3_AA>
-12.2

> <PUBCHEM_EXACT_MASS>
1346.73267172

> <PUBCHEM_MOLECULAR_FORMULA>
C53H94N28O12S

> <PUBCHEM_MOLECULAR_WEIGHT>
1347.6

> <PUBCHEM_SMILES>
C1=CC2=C(C=CN=C2)C(=C1)S(=O)(=O)NCCNCCC(=O)N[C@@H](CO)C(=O)N[C@@H](CCCN=C(N)N)C(=O)N[C@@H](CCCN=C(N)N)C(=O)N[C@@H](CCCN=C(N)N)C(=O)N[C@@H](CCCN=C(N)N)C(=O)N[C@@H](CCCN=C(N)N)C(=O)N[C@@H](CCCN=C(N)N)C(=O)O

> <PUBCHEM_OPENEYE_CAN_SMILES>
C1=CC2=C(C=CN=C2)C(=C1)S(=O)(=O)NCCNCCC(=O)NC(CO)C(=O)NC(CCCN=C(N)N)C(=O)NC(CCCN=C(N)N)C(=O)NC(CCCN=C(N)N)C(=O)NC(CCCN=C(N)N)C(=O)NC(CCCN=C(N)N)C(=O)NC(CCCN=C(N)N)C(=O)O

> <PUBCHEM_OPENEYE_ISO_SMILES>
C1=CC2=C(C=CN=C2)C(=C1)S(=O)(=O)NCCNCCC(=O)N[C@@H](CO)C(=O)N[C@@H](CCCN=C(N)N)C(=O)N[C@@H](CCCN=C(N)N)C(=O)N[C@@H](CCCN=C(N)N)C(=O)N[C@@H](CCCN=C(N)N)C(=O)N[C@@H](CCCN=C(N)N)C(=O)N[C@@H](CCCN=C(N)N)C(=O)O

> <PUBCHEM_CACTVS_TPSA>
727

> <PUBCHEM_MONOISOTOPIC_WEIGHT>
1346.73267172

> <PUBCHEM_TOTAL_CHARGE>
0

> <PUBCHEM_HEAVY_ATOM_COUNT>
94

> <PUBCHEM_ATOM_DEF_STEREO_COUNT>
7

> <PUBCHEM_ATOM_UDEF_STEREO_COUNT>
0

> <PUBCHEM_BOND_DEF_STEREO_COUNT>
0

> <PUBCHEM_BOND_UDEF_STEREO_COUNT>
0

> <PUBCHEM_ISOTOPIC_ATOM_COUNT>
0

> <PUBCHEM_COMPONENT_COUNT>
1

> <PUBCHEM_CACTVS_TAUTO_COUNT>
-1

> <PUBCHEM_COORDINATE_TYPE>
1
5
255

> <PUBCHEM_BONDANNOTATIONS>
42  14  5
43  15  6
44  16  6
48  17  5
52  18  5
64  19  6
70  23  6
41  93  8
41  94  8
86  87  8
86  88  8
87  89  8
87  92  8
88  90  8
89  91  8
89  93  8
90  91  8
92  94  8

$$$$
