56604907
  -OEChem-03202504332D

 64 68  0     0  0  0  0  0  0999 V2000
    5.4573    0.2575    0.0000 F   0  0  0  0  0  0  0  0  0  0  0  0
    9.1120    3.4636    0.0000 O   0  0  0  0  0  0  0  0  0  0  0  0
    5.4804   -1.7423    0.0000 O   0  0  0  0  0  0  0  0  0  0  0  0
    8.0379    1.7875    0.0000 O   0  0  0  0  0  0  0  0  0  0  0  0
    2.0000   -2.7769    0.0000 O   0  0  0  0  0  0  0  0  0  0  0  0
    2.0000   -4.7769    0.0000 O   0  0  0  0  0  0  0  0  0  0  0  0
   11.3485    2.1622    0.0000 N   0  0  0  0  0  0  0  0  0  0  0  0
   10.8385    3.0224    0.0000 N   0  0  0  0  0  0  0  0  0  0  0  0
    8.9212    0.2976    0.0000 N   0  0  0  0  0  0  0  0  0  0  0  0
    5.4920   -4.8116    0.0000 N   0  0  0  0  0  0  0  0  0  0  0  0
   10.6880    1.4114    0.0000 C   0  0  0  0  0  0  0  0  0  0  0  0
    9.7698    1.8075    0.0000 C   0  0  0  0  0  0  0  0  0  0  0  0
    9.8628    2.8032    0.0000 C   0  0  0  0  0  0  0  0  0  0  0  0
   11.2347    3.9406    0.0000 C   0  0  0  0  0  0  0  0  0  0  0  0
   12.3442    2.0692    0.0000 C   0  0  0  0  0  0  0  0  0  0  0  0
   10.9072    0.4357    0.0000 C   0  0  0  0  0  0  0  0  0  0  0  0
    8.9096    1.2975    0.0000 C   0  0  0  0  0  0  0  0  0  0  0  0
   12.2279    4.0566    0.0000 C   0  0  0  0  0  0  0  0  0  0  0  0
   10.6376    4.7427    0.0000 C   0  0  0  0  0  0  0  0  0  0  0  0
    8.0610   -0.2124    0.0000 C   0  0  0  0  0  0  0  0  0  0  0  0
    4.5981   -3.2769    0.0000 C   0  0  0  0  0  0  0  0  0  0  0  0
   12.6241    4.9748    0.0000 C   0  0  0  0  0  0  0  0  0  0  0  0
   11.0337    5.6609    0.0000 C   0  0  0  0  0  0  0  0  0  0  0  0
    5.4920   -2.7423    0.0000 C   0  0  0  0  0  0  0  0  0  0  0  0
    4.5981   -4.2769    0.0000 C   0  0  0  0  0  0  0  0  0  0  0  0
   12.0270    5.7769    0.0000 C   0  0  0  0  0  0  0  0  0  0  0  0
    7.1893    0.2776    0.0000 C   0  0  0  0  0  0  0  0  0  0  0  0
    8.0726   -1.2123    0.0000 C   0  0  0  0  0  0  0  0  0  0  0  0
    6.3406   -1.2324    0.0000 C   0  0  0  0  0  0  0  0  0  0  0  0
    3.7320   -2.7769    0.0000 C   0  0  0  0  0  0  0  0  0  0  0  0
    6.3291   -0.2324    0.0000 C   0  0  0  0  0  0  0  0  0  0  0  0
    7.2124   -1.7223    0.0000 C   0  0  0  0  0  0  0  0  0  0  0  0
    2.8660   -3.2769    0.0000 C   0  0  0  0  0  0  0  0  0  0  0  0
    3.7320   -4.7769    0.0000 C   0  0  0  0  0  0  0  0  0  0  0  0
    2.8660   -4.2769    0.0000 C   0  0  0  0  0  0  0  0  0  0  0  0
    6.3981   -3.2561    0.0000 C   0  0  0  0  0  0  0  0  0  0  0  0
    6.3981   -4.2978    0.0000 C   0  0  0  0  0  0  0  0  0  0  0  0
    2.0000   -1.7769    0.0000 C   0  0  0  0  0  0  0  0  0  0  0  0
    2.0000   -5.7769    0.0000 C   0  0  0  0  0  0  0  0  0  0  0  0
   12.2865    1.4518    0.0000 H   0  0  0  0  0  0  0  0  0  0  0  0
   12.9615    2.0115    0.0000 H   0  0  0  0  0  0  0  0  0  0  0  0
   12.4018    2.6865    0.0000 H   0  0  0  0  0  0  0  0  0  0  0  0
   10.3023    0.2998    0.0000 H   0  0  0  0  0  0  0  0  0  0  0  0
   11.0431   -0.1692    0.0000 H   0  0  0  0  0  0  0  0  0  0  0  0
   11.5121    0.5716    0.0000 H   0  0  0  0  0  0  0  0  0  0  0  0
   12.5981    3.5592    0.0000 H   0  0  0  0  0  0  0  0  0  0  0  0
   10.0218    4.6708    0.0000 H   0  0  0  0  0  0  0  0  0  0  0  0
    9.4617   -0.0062    0.0000 H   0  0  0  0  0  0  0  0  0  0  0  0
   13.2399    5.0467    0.0000 H   0  0  0  0  0  0  0  0  0  0  0  0
   10.6635    6.1582    0.0000 H   0  0  0  0  0  0  0  0  0  0  0  0
   12.2726    6.3462    0.0000 H   0  0  0  0  0  0  0  0  0  0  0  0
    7.1821    0.8975    0.0000 H   0  0  0  0  0  0  0  0  0  0  0  0
    8.6131   -1.5161    0.0000 H   0  0  0  0  0  0  0  0  0  0  0  0
    3.7320   -2.1569    0.0000 H   0  0  0  0  0  0  0  0  0  0  0  0
    7.2196   -2.3423    0.0000 H   0  0  0  0  0  0  0  0  0  0  0  0
    3.7320   -5.3969    0.0000 H   0  0  0  0  0  0  0  0  0  0  0  0
    6.9338   -2.9440    0.0000 H   0  0  0  0  0  0  0  0  0  0  0  0
    6.9338   -4.6098    0.0000 H   0  0  0  0  0  0  0  0  0  0  0  0
    2.6200   -1.7769    0.0000 H   0  0  0  0  0  0  0  0  0  0  0  0
    2.0000   -1.1569    0.0000 H   0  0  0  0  0  0  0  0  0  0  0  0
    1.3800   -1.7769    0.0000 H   0  0  0  0  0  0  0  0  0  0  0  0
    1.3800   -5.7769    0.0000 H   0  0  0  0  0  0  0  0  0  0  0  0
    2.0000   -6.3969    0.0000 H   0  0  0  0  0  0  0  0  0  0  0  0
    2.6200   -5.7769    0.0000 H   0  0  0  0  0  0  0  0  0  0  0  0
  1 31  1  0  0  0  0
  2 13  2  0  0  0  0
  3 24  1  0  0  0  0
  3 29  1  0  0  0  0
  4 17  2  0  0  0  0
  5 33  1  0  0  0  0
  5 38  1  0  0  0  0
  6 35  1  0  0  0  0
  6 39  1  0  0  0  0
  7  8  1  0  0  0  0
  7 11  1  0  0  0  0
  7 15  1  0  0  0  0
  8 13  1  0  0  0  0
  8 14  1  0  0  0  0
  9 17  1  0  0  0  0
  9 20  1  0  0  0  0
  9 48  1  0  0  0  0
 10 25  2  0  0  0  0
 10 37  1  0  0  0  0
 11 12  2  0  0  0  0
 11 16  1  0  0  0  0
 12 13  1  0  0  0  0
 12 17  1  0  0  0  0
 14 18  2  0  0  0  0
 14 19  1  0  0  0  0
 15 40  1  0  0  0  0
 15 41  1  0  0  0  0
 15 42  1  0  0  0  0
 16 43  1  0  0  0  0
 16 44  1  0  0  0  0
 16 45  1  0  0  0  0
 18 22  1  0  0  0  0
 18 46  1  0  0  0  0
 19 23  2  0  0  0  0
 19 47  1  0  0  0  0
 20 27  2  0  0  0  0
 20 28  1  0  0  0  0
 21 24  2  0  0  0  0
 21 25  1  0  0  0  0
 21 30  1  0  0  0  0
 22 26  2  0  0  0  0
 22 49  1  0  0  0  0
 23 26  1  0  0  0  0
 23 50  1  0  0  0  0
 24 36  1  0  0  0  0
 25 34  1  0  0  0  0
 26 51  1  0  0  0  0
 27 31  1  0  0  0  0
 27 52  1  0  0  0  0
 28 32  2  0  0  0  0
 28 53  1  0  0  0  0
 29 31  2  0  0  0  0
 29 32  1  0  0  0  0
 30 33  2  0  0  0  0
 30 54  1  0  0  0  0
 32 55  1  0  0  0  0
 33 35  1  0  0  0  0
 34 35  2  0  0  0  0
 34 56  1  0  0  0  0
 36 37  2  0  0  0  0
 36 57  1  0  0  0  0
 37 58  1  0  0  0  0
 38 59  1  0  0  0  0
 38 60  1  0  0  0  0
 38 61  1  0  0  0  0
 39 62  1  0  0  0  0
 39 63  1  0  0  0  0
 39 64  1  0  0  0  0
M  END
> <PUBCHEM_COMPOUND_CID>
56604907

> <PUBCHEM_COMPOUND_CANONICALIZED>
1

> <PUBCHEM_CACTVS_COMPLEXITY>
927

> <PUBCHEM_CACTVS_HBOND_ACCEPTOR>
8

> <PUBCHEM_CACTVS_HBOND_DONOR>
1

> <PUBCHEM_CACTVS_ROTATABLE_BOND>
7

> <PUBCHEM_CACTVS_SUBSKEYS>
AAADceB7uQAAAAAAAAAAAAAAAAAAAQAAAAA8YMEAAAAAAACx9AAAHwAYAAAADAzBng4+xvLIFACoAzV3VACCjCAxIiAa2CE+7NgNJurM8ZuGOCrm1BnK6Ufw8L8OIEABAgACQABAgAIEAASAAAAAAAAAAA==

> <PUBCHEM_IUPAC_OPENEYE_NAME>
N-[4-[(6,7-dimethoxy-4-quinolyl)oxy]-3-fluoro-phenyl]-1,5-dimethyl-3-oxo-2-phenyl-pyrazole-4-carboxamide

> <PUBCHEM_IUPAC_CAS_NAME>
N-[4-[(6,7-dimethoxy-4-quinolinyl)oxy]-3-fluorophenyl]-1,5-dimethyl-3-oxo-2-phenyl-4-pyrazolecarboxamide

> <PUBCHEM_IUPAC_NAME_MARKUP>
<I>N</I>-[4-(6,7-dimethoxyquinolin-4-yl)oxy-3-fluorophenyl]-1,5-dimethyl-3-oxo-2-phenylpyrazole-4-carboxamide

> <PUBCHEM_IUPAC_NAME>
N-[4-(6,7-dimethoxyquinolin-4-yl)oxy-3-fluorophenyl]-1,5-dimethyl-3-oxo-2-phenylpyrazole-4-carboxamide

> <PUBCHEM_IUPAC_SYSTEMATIC_NAME>
N-[4-(6,7-dimethoxyquinolin-4-yl)oxy-3-fluoranyl-phenyl]-1,5-dimethyl-3-oxidanylidene-2-phenyl-pyrazole-4-carboxamide

> <PUBCHEM_IUPAC_TRADITIONAL_NAME>
N-[4-[(6,7-dimethoxy-4-quinolyl)oxy]-3-fluoro-phenyl]-3-keto-1,5-dimethyl-2-phenyl-3-pyrazoline-4-carboxamide

> <PUBCHEM_IUPAC_INCHI>
InChI=1S/C29H25FN4O5/c1-17-27(29(36)34(33(17)2)19-8-6-5-7-9-19)28(35)32-18-10-11-24(21(30)14-18)39-23-12-13-31-22-16-26(38-4)25(37-3)15-20(22)23/h5-16H,1-4H3,(H,32,35)

> <PUBCHEM_IUPAC_INCHIKEY>
SBLMCLDRWJNEJK-UHFFFAOYSA-N

> <PUBCHEM_XLOGP3_AA>
4.9

> <PUBCHEM_EXACT_MASS>
528.18089807

> <PUBCHEM_MOLECULAR_FORMULA>
C29H25FN4O5

> <PUBCHEM_MOLECULAR_WEIGHT>
528.5

> <PUBCHEM_SMILES>
CC1=C(C(=O)N(N1C)C2=CC=CC=C2)C(=O)NC3=CC(=C(C=C3)OC4=C5C=C(C(=CC5=NC=C4)OC)OC)F

> <PUBCHEM_OPENEYE_CAN_SMILES>
CC1=C(C(=O)N(N1C)C2=CC=CC=C2)C(=O)NC3=CC(=C(C=C3)OC4=C5C=C(C(=CC5=NC=C4)OC)OC)F

> <PUBCHEM_OPENEYE_ISO_SMILES>
CC1=C(C(=O)N(N1C)C2=CC=CC=C2)C(=O)NC3=CC(=C(C=C3)OC4=C5C=C(C(=CC5=NC=C4)OC)OC)F

> <PUBCHEM_CACTVS_TPSA>
93.2

> <PUBCHEM_MONOISOTOPIC_WEIGHT>
528.18089807

> <PUBCHEM_TOTAL_CHARGE>
0

> <PUBCHEM_HEAVY_ATOM_COUNT>
39

> <PUBCHEM_ATOM_DEF_STEREO_COUNT>
0

> <PUBCHEM_ATOM_UDEF_STEREO_COUNT>
0

> <PUBCHEM_BOND_DEF_STEREO_COUNT>
0

> <PUBCHEM_BOND_UDEF_STEREO_COUNT>
0

> <PUBCHEM_ISOTOPIC_ATOM_COUNT>
0

> <PUBCHEM_COMPONENT_COUNT>
1

> <PUBCHEM_CACTVS_TAUTO_COUNT>
-1

> <PUBCHEM_COORDINATE_TYPE>
1
5
255

> <PUBCHEM_BONDANNOTATIONS>
10  25  8
10  37  8
11  12  8
12  13  8
14  18  8
14  19  8
18  22  8
19  23  8
20  27  8
20  28  8
21  24  8
21  25  8
21  30  8
22  26  8
23  26  8
24  36  8
25  34  8
27  31  8
28  32  8
29  31  8
29  32  8
30  33  8
33  35  8
34  35  8
36  37  8
7  11  8
7  8  8
8  13  8

$$$$
