49830445
  -OEChem-03202503372D

 38 40  0     0  0  0  0  0  0999 V2000
    3.7320    1.1370    0.0000 S   0  0  0  0  0  0  0  0  0  0  0  0
    3.2320    2.0030    0.0000 O   0  0  0  0  0  0  0  0  0  0  0  0
    4.2320    0.2710    0.0000 O   0  0  0  0  0  0  0  0  0  0  0  0
    4.5981    1.6370    0.0000 N   0  0  0  0  0  0  0  0  0  0  0  0
   10.7404   -1.6677    0.0000 N   0  0  0  0  0  0  0  0  0  0  0  0
   11.3241   -0.8630    0.0000 N   0  0  0  0  0  0  0  0  0  0  0  0
   11.0511    0.8923    0.0000 N   0  0  0  0  0  0  0  0  0  0  0  0
    8.0622   -0.3630    0.0000 C   0  0  0  0  0  0  0  0  0  0  0  0
    7.1962    0.1370    0.0000 C   0  0  0  0  0  0  0  0  0  0  0  0
    9.7942   -0.3630    0.0000 C   0  0  0  0  0  0  0  0  0  0  0  0
    9.7942   -1.3630    0.0000 C   0  0  0  0  0  0  0  0  0  0  0  0
    8.9282    0.1370    0.0000 C   0  0  0  0  0  0  0  0  0  0  0  0
    5.4641    1.1370    0.0000 C   0  0  0  0  0  0  0  0  0  0  0  0
    8.0622   -1.3630    0.0000 C   0  0  0  0  0  0  0  0  0  0  0  0
    8.9282   -1.8630    0.0000 C   0  0  0  0  0  0  0  0  0  0  0  0
    6.3301   -0.3630    0.0000 C   0  0  0  0  0  0  0  0  0  0  0  0
    7.1962    1.1370    0.0000 C   0  0  0  0  0  0  0  0  0  0  0  0
    2.8660    0.6370    0.0000 C   0  0  0  0  0  0  0  0  0  0  0  0
    5.4641    0.1370    0.0000 C   0  0  0  0  0  0  0  0  0  0  0  0
    6.3301    1.6370    0.0000 C   0  0  0  0  0  0  0  0  0  0  0  0
   10.7404   -0.0582    0.0000 C   0  0  0  0  0  0  0  0  0  0  0  0
    2.0000    1.1370    0.0000 C   0  0  0  0  0  0  0  0  0  0  0  0
    8.9282    0.7570    0.0000 H   0  0  0  0  0  0  0  0  0  0  0  0
    7.5252   -1.6730    0.0000 H   0  0  0  0  0  0  0  0  0  0  0  0
    4.5981    2.2570    0.0000 H   0  0  0  0  0  0  0  0  0  0  0  0
    2.4675    0.1621    0.0000 H   0  0  0  0  0  0  0  0  0  0  0  0
    3.2646    0.1621    0.0000 H   0  0  0  0  0  0  0  0  0  0  0  0
    8.9282   -2.4830    0.0000 H   0  0  0  0  0  0  0  0  0  0  0  0
    6.3301   -0.9830    0.0000 H   0  0  0  0  0  0  0  0  0  0  0  0
    7.7331    1.4470    0.0000 H   0  0  0  0  0  0  0  0  0  0  0  0
    4.9272   -0.1730    0.0000 H   0  0  0  0  0  0  0  0  0  0  0  0
    6.3301    2.2570    0.0000 H   0  0  0  0  0  0  0  0  0  0  0  0
   10.9331   -2.2570    0.0000 H   0  0  0  0  0  0  0  0  0  0  0  0
    2.3100    1.6740    0.0000 H   0  0  0  0  0  0  0  0  0  0  0  0
    1.4631    1.4470    0.0000 H   0  0  0  0  0  0  0  0  0  0  0  0
    1.6900    0.6001    0.0000 H   0  0  0  0  0  0  0  0  0  0  0  0
   11.6578    1.0201    0.0000 H   0  0  0  0  0  0  0  0  0  0  0  0
   10.6370    1.3538    0.0000 H   0  0  0  0  0  0  0  0  0  0  0  0
  1  2  2  0  0  0  0
  1  3  2  0  0  0  0
  1  4  1  0  0  0  0
  1 18  1  0  0  0  0
  4 13  1  0  0  0  0
  4 25  1  0  0  0  0
  5  6  1  0  0  0  0
  5 11  1  0  0  0  0
  5 33  1  0  0  0  0
  6 21  2  0  0  0  0
  7 21  1  0  0  0  0
  7 37  1  0  0  0  0
  7 38  1  0  0  0  0
  8  9  1  0  0  0  0
  8 12  2  0  0  0  0
  8 14  1  0  0  0  0
  9 16  2  0  0  0  0
  9 17  1  0  0  0  0
 10 11  2  0  0  0  0
 10 12  1  0  0  0  0
 10 21  1  0  0  0  0
 11 15  1  0  0  0  0
 12 23  1  0  0  0  0
 13 19  2  0  0  0  0
 13 20  1  0  0  0  0
 14 15  2  0  0  0  0
 14 24  1  0  0  0  0
 15 28  1  0  0  0  0
 16 19  1  0  0  0  0
 16 29  1  0  0  0  0
 17 20  2  0  0  0  0
 17 30  1  0  0  0  0
 18 22  1  0  0  0  0
 18 26  1  0  0  0  0
 18 27  1  0  0  0  0
 19 31  1  0  0  0  0
 20 32  1  0  0  0  0
 22 34  1  0  0  0  0
 22 35  1  0  0  0  0
 22 36  1  0  0  0  0
M  END
> <PUBCHEM_COMPOUND_CID>
49830445

> <PUBCHEM_COMPOUND_CANONICALIZED>
1

> <PUBCHEM_CACTVS_COMPLEXITY>
470

> <PUBCHEM_CACTVS_HBOND_ACCEPTOR>
5

> <PUBCHEM_CACTVS_HBOND_DONOR>
3

> <PUBCHEM_CACTVS_ROTATABLE_BOND>
4

> <PUBCHEM_CACTVS_SUBSKEYS>
AAADceBzsABAAAAAAAAAAAAAAAAAAWAAAAAwYAAAAAAAAFgB9AAAHAQYQAAADAiFXgCz8PBjAAKiAyZiYHDSBAIgAgAcuSAwZJgIIKKA0dGApABwmAAIyAcQgMAOiAACAAACAAAQAAQAAAQAAAAAAAAAAA==

> <PUBCHEM_IUPAC_OPENEYE_NAME>
N-[4-(3-amino-1H-indazol-5-yl)phenyl]ethanesulfonamide

> <PUBCHEM_IUPAC_CAS_NAME>
N-[4-(3-amino-1H-indazol-5-yl)phenyl]ethanesulfonamide

> <PUBCHEM_IUPAC_NAME_MARKUP>
<I>N</I>-[4-(3-amino-1<I>H</I>-indazol-5-yl)phenyl]ethanesulfonamide

> <PUBCHEM_IUPAC_NAME>
N-[4-(3-amino-1H-indazol-5-yl)phenyl]ethanesulfonamide

> <PUBCHEM_IUPAC_SYSTEMATIC_NAME>
N-[4-(3-azanyl-1H-indazol-5-yl)phenyl]ethanesulfonamide

> <PUBCHEM_IUPAC_TRADITIONAL_NAME>
N-[4-(3-amino-1H-indazol-5-yl)phenyl]ethanesulfonamide

> <PUBCHEM_IUPAC_INCHI>
InChI=1S/C15H16N4O2S/c1-2-22(20,21)19-12-6-3-10(4-7-12)11-5-8-14-13(9-11)15(16)18-17-14/h3-9,19H,2H2,1H3,(H3,16,17,18)

> <PUBCHEM_IUPAC_INCHIKEY>
UEZPPFDNXOFISI-UHFFFAOYSA-N

> <PUBCHEM_XLOGP3_AA>
2.2

> <PUBCHEM_EXACT_MASS>
316.09939694

> <PUBCHEM_MOLECULAR_FORMULA>
C15H16N4O2S

> <PUBCHEM_MOLECULAR_WEIGHT>
316.4

> <PUBCHEM_SMILES>
CCS(=O)(=O)NC1=CC=C(C=C1)C2=CC3=C(C=C2)NN=C3N

> <PUBCHEM_OPENEYE_CAN_SMILES>
CCS(=O)(=O)NC1=CC=C(C=C1)C2=CC3=C(C=C2)NN=C3N

> <PUBCHEM_OPENEYE_ISO_SMILES>
CCS(=O)(=O)NC1=CC=C(C=C1)C2=CC3=C(C=C2)NN=C3N

> <PUBCHEM_CACTVS_TPSA>
109

> <PUBCHEM_MONOISOTOPIC_WEIGHT>
316.09939694

> <PUBCHEM_TOTAL_CHARGE>
0

> <PUBCHEM_HEAVY_ATOM_COUNT>
22

> <PUBCHEM_ATOM_DEF_STEREO_COUNT>
0

> <PUBCHEM_ATOM_UDEF_STEREO_COUNT>
0

> <PUBCHEM_BOND_DEF_STEREO_COUNT>
0

> <PUBCHEM_BOND_UDEF_STEREO_COUNT>
0

> <PUBCHEM_ISOTOPIC_ATOM_COUNT>
0

> <PUBCHEM_COMPONENT_COUNT>
1

> <PUBCHEM_CACTVS_TAUTO_COUNT>
-1

> <PUBCHEM_COORDINATE_TYPE>
1
5
255

> <PUBCHEM_BONDANNOTATIONS>
10  11  8
10  12  8
10  21  8
11  15  8
13  19  8
13  20  8
14  15  8
16  19  8
17  20  8
5  11  8
5  6  8
6  21  8
8  12  8
8  14  8
9  16  8
9  17  8

$$$$
