255603
  -OEChem-03202501522D

 43 44  0     0  0  0  0  0  0999 V2000
    7.2690   -1.7320    0.0000 O   0  0  0  0  0  0  0  0  0  0  0  0
    4.2690   -4.0000    0.0000 O   0  0  0  0  0  0  0  0  0  0  0  0
    4.2690    4.0000    0.0000 O   0  0  0  0  0  0  0  0  0  0  0  0
    7.2690    0.0000    0.0000 O   0  0  0  0  0  0  0  0  0  0  0  0
    2.5369   -3.0000    0.0000 N   0  0  0  0  0  0  0  0  0  0  0  0
    6.0010    3.0000    0.0000 N   0  0  0  0  0  0  0  0  0  0  0  0
    4.2690    0.0000    0.0000 C   0  0  0  0  0  0  0  0  0  0  0  0
    5.2690    0.0000    0.0000 C   0  0  0  0  0  0  0  0  0  0  0  0
    4.2690   -1.0000    0.0000 C   0  0  0  0  0  0  0  0  0  0  0  0
    4.2690    1.0000    0.0000 C   0  0  0  0  0  0  0  0  0  0  0  0
    3.2690    0.0000    0.0000 C   0  0  0  0  0  0  0  0  0  0  0  0
    5.7690   -0.8660    0.0000 C   0  0  0  0  0  0  0  0  0  0  0  0
    3.4030   -1.5000    0.0000 C   0  0  0  0  0  0  0  0  0  0  0  0
    5.1350    1.5000    0.0000 C   0  0  0  0  0  0  0  0  0  0  0  0
    5.1350   -1.5000    0.0000 C   0  0  0  0  0  0  0  0  0  0  0  0
    3.4030    1.5000    0.0000 C   0  0  0  0  0  0  0  0  0  0  0  0
    3.4030   -2.5000    0.0000 C   0  0  0  0  0  0  0  0  0  0  0  0
    5.1350    2.5000    0.0000 C   0  0  0  0  0  0  0  0  0  0  0  0
    5.1350   -2.5000    0.0000 C   0  0  0  0  0  0  0  0  0  0  0  0
    3.4030    2.5000    0.0000 C   0  0  0  0  0  0  0  0  0  0  0  0
    6.7690   -0.8660    0.0000 C   0  0  0  0  0  0  0  0  0  0  0  0
    4.2690   -3.0000    0.0000 C   0  0  0  0  0  0  0  0  0  0  0  0
    4.2690    3.0000    0.0000 C   0  0  0  0  0  0  0  0  0  0  0  0
    5.8516    0.2121    0.0000 H   0  0  0  0  0  0  0  0  0  0  0  0
    5.1613    0.6106    0.0000 H   0  0  0  0  0  0  0  0  0  0  0  0
    3.2690    0.6200    0.0000 H   0  0  0  0  0  0  0  0  0  0  0  0
    2.6490    0.0000    0.0000 H   0  0  0  0  0  0  0  0  0  0  0  0
    3.2690   -0.6200    0.0000 H   0  0  0  0  0  0  0  0  0  0  0  0
    5.1864   -1.0781    0.0000 H   0  0  0  0  0  0  0  0  0  0  0  0
    5.8766   -1.4766    0.0000 H   0  0  0  0  0  0  0  0  0  0  0  0
    2.8660   -1.1900    0.0000 H   0  0  0  0  0  0  0  0  0  0  0  0
    5.6720    1.1900    0.0000 H   0  0  0  0  0  0  0  0  0  0  0  0
    5.6720   -1.1900    0.0000 H   0  0  0  0  0  0  0  0  0  0  0  0
    2.8660    1.1900    0.0000 H   0  0  0  0  0  0  0  0  0  0  0  0
    5.6720   -2.8100    0.0000 H   0  0  0  0  0  0  0  0  0  0  0  0
    2.8660    2.8100    0.0000 H   0  0  0  0  0  0  0  0  0  0  0  0
    2.0000   -2.6900    0.0000 H   0  0  0  0  0  0  0  0  0  0  0  0
    2.5369   -3.6200    0.0000 H   0  0  0  0  0  0  0  0  0  0  0  0
    6.0010    3.6200    0.0000 H   0  0  0  0  0  0  0  0  0  0  0  0
    6.5380    2.6900    0.0000 H   0  0  0  0  0  0  0  0  0  0  0  0
    7.8890   -1.7320    0.0000 H   0  0  0  0  0  0  0  0  0  0  0  0
    4.8059   -4.3100    0.0000 H   0  0  0  0  0  0  0  0  0  0  0  0
    3.7320    4.3100    0.0000 H   0  0  0  0  0  0  0  0  0  0  0  0
  1 21  1  0  0  0  0
  1 41  1  0  0  0  0
  2 22  1  0  0  0  0
  2 42  1  0  0  0  0
  3 23  1  0  0  0  0
  3 43  1  0  0  0  0
  4 21  2  0  0  0  0
  5 17  1  0  0  0  0
  5 37  1  0  0  0  0
  5 38  1  0  0  0  0
  6 18  1  0  0  0  0
  6 39  1  0  0  0  0
  6 40  1  0  0  0  0
  7  8  1  0  0  0  0
  7  9  1  0  0  0  0
  7 10  1  0  0  0  0
  7 11  1  0  0  0  0
  8 12  1  0  0  0  0
  8 24  1  0  0  0  0
  8 25  1  0  0  0  0
  9 13  2  0  0  0  0
  9 15  1  0  0  0  0
 10 14  2  0  0  0  0
 10 16  1  0  0  0  0
 11 26  1  0  0  0  0
 11 27  1  0  0  0  0
 11 28  1  0  0  0  0
 12 21  1  0  0  0  0
 12 29  1  0  0  0  0
 12 30  1  0  0  0  0
 13 17  1  0  0  0  0
 13 31  1  0  0  0  0
 14 18  1  0  0  0  0
 14 32  1  0  0  0  0
 15 19  2  0  0  0  0
 15 33  1  0  0  0  0
 16 20  2  0  0  0  0
 16 34  1  0  0  0  0
 17 22  2  0  0  0  0
 18 23  2  0  0  0  0
 19 22  1  0  0  0  0
 19 35  1  0  0  0  0
 20 23  1  0  0  0  0
 20 36  1  0  0  0  0
M  END
> <PUBCHEM_COMPOUND_CID>
255603

> <PUBCHEM_COMPOUND_CANONICALIZED>
1

> <PUBCHEM_CACTVS_COMPLEXITY>
391

> <PUBCHEM_CACTVS_HBOND_ACCEPTOR>
6

> <PUBCHEM_CACTVS_HBOND_DONOR>
5

> <PUBCHEM_CACTVS_ROTATABLE_BOND>
5

> <PUBCHEM_CACTVS_SUBSKEYS>
AAADceB7OAAAAAAAAAAAAAAAAAAAAAAAAAAwYAAAAAAAAAABQAAAHgAQCAAADgyBmAAyzoBAAgCIAiTSSACCAAAgIgAIiAEHbIgKJjKSkZOAcABk0BEI2AeYyPCPoAAAQAAAEABAAACAAAAgAAAAAAAAAA==

> <PUBCHEM_IUPAC_OPENEYE_NAME>
4,4-bis(3-amino-4-hydroxy-phenyl)pentanoic acid

> <PUBCHEM_IUPAC_CAS_NAME>
4,4-bis(3-amino-4-hydroxyphenyl)pentanoic acid

> <PUBCHEM_IUPAC_NAME_MARKUP>
4,4-bis(3-amino-4-hydroxyphenyl)pentanoic acid

> <PUBCHEM_IUPAC_NAME>
4,4-bis(3-amino-4-hydroxyphenyl)pentanoic acid

> <PUBCHEM_IUPAC_SYSTEMATIC_NAME>
4,4-bis(3-azanyl-4-oxidanyl-phenyl)pentanoic acid

> <PUBCHEM_IUPAC_TRADITIONAL_NAME>
4,4-bis(3-amino-4-hydroxy-phenyl)valeric acid

> <PUBCHEM_IUPAC_INCHI>
InChI=1S/C17H20N2O4/c1-17(7-6-16(22)23,10-2-4-14(20)12(18)8-10)11-3-5-15(21)13(19)9-11/h2-5,8-9,20-21H,6-7,18-19H2,1H3,(H,22,23)

> <PUBCHEM_IUPAC_INCHIKEY>
BUDOGSSTKVVWDR-UHFFFAOYSA-N

> <PUBCHEM_XLOGP3_AA>
2

> <PUBCHEM_EXACT_MASS>
316.14230712

> <PUBCHEM_MOLECULAR_FORMULA>
C17H20N2O4

> <PUBCHEM_MOLECULAR_WEIGHT>
316.35

> <PUBCHEM_SMILES>
CC(CCC(=O)O)(C1=CC(=C(C=C1)O)N)C2=CC(=C(C=C2)O)N

> <PUBCHEM_OPENEYE_CAN_SMILES>
CC(CCC(=O)O)(C1=CC(=C(C=C1)O)N)C2=CC(=C(C=C2)O)N

> <PUBCHEM_OPENEYE_ISO_SMILES>
CC(CCC(=O)O)(C1=CC(=C(C=C1)O)N)C2=CC(=C(C=C2)O)N

> <PUBCHEM_CACTVS_TPSA>
130

> <PUBCHEM_MONOISOTOPIC_WEIGHT>
316.14230712

> <PUBCHEM_TOTAL_CHARGE>
0

> <PUBCHEM_HEAVY_ATOM_COUNT>
23

> <PUBCHEM_ATOM_DEF_STEREO_COUNT>
0

> <PUBCHEM_ATOM_UDEF_STEREO_COUNT>
0

> <PUBCHEM_BOND_DEF_STEREO_COUNT>
0

> <PUBCHEM_BOND_UDEF_STEREO_COUNT>
0

> <PUBCHEM_ISOTOPIC_ATOM_COUNT>
0

> <PUBCHEM_COMPONENT_COUNT>
1

> <PUBCHEM_CACTVS_TAUTO_COUNT>
-1

> <PUBCHEM_COORDINATE_TYPE>
1
5
255

> <PUBCHEM_BONDANNOTATIONS>
10  14  8
10  16  8
13  17  8
14  18  8
15  19  8
16  20  8
17  22  8
18  23  8
19  22  8
20  23  8
9  13  8
9  15  8

$$$$
