49830356
  -OEChem-03202502172D

 49 52  0     0  0  0  0  0  0999 V2000
   11.0397    2.8741    0.0000 Cl  0  0  0  0  0  0  0  0  0  0  0  0
    5.2152   -2.6180    0.0000 S   0  0  0  0  0  0  0  0  0  0  0  0
    4.2690   -4.3133    0.0000 O   0  0  0  0  0  0  0  0  0  0  0  0
    8.1042    2.2555    0.0000 O   0  0  0  0  0  0  0  0  0  0  0  0
    2.5369   -1.3133    0.0000 N   0  0  0  0  0  0  0  0  0  0  0  0
    3.4030    0.1867    0.0000 N   0  0  0  0  0  0  0  0  0  0  0  0
    6.4579    2.7936    0.0000 N   0  0  0  0  0  0  0  0  0  0  0  0
    2.5369   -4.3133    0.0000 N   0  0  0  0  0  0  0  0  0  0  0  0
    7.7470    3.9503    0.0000 N   0  0  0  0  0  0  0  0  0  0  0  0
    4.2690   -1.3133    0.0000 C   0  0  0  0  0  0  0  0  0  0  0  0
    5.2152   -1.0085    0.0000 C   0  0  0  0  0  0  0  0  0  0  0  0
    4.2690   -2.3133    0.0000 C   0  0  0  0  0  0  0  0  0  0  0  0
    5.5259   -0.0580    0.0000 C   0  0  0  0  0  0  0  0  0  0  0  0
    3.4030   -2.8133    0.0000 C   0  0  0  0  0  0  0  0  0  0  0  0
    5.7988   -1.8133    0.0000 C   0  0  0  0  0  0  0  0  0  0  0  0
    3.4030   -0.8133    0.0000 C   0  0  0  0  0  0  0  0  0  0  0  0
    4.8580    0.6863    0.0000 C   0  0  0  0  0  0  0  0  0  0  0  0
    6.5044    0.1482    0.0000 C   0  0  0  0  0  0  0  0  0  0  0  0
    2.5369   -2.3133    0.0000 C   0  0  0  0  0  0  0  0  0  0  0  0
    6.1472    1.8430    0.0000 C   0  0  0  0  0  0  0  0  0  0  0  0
    5.1687    1.6368    0.0000 C   0  0  0  0  0  0  0  0  0  0  0  0
    6.8150    1.0987    0.0000 C   0  0  0  0  0  0  0  0  0  0  0  0
    3.4030   -3.8133    0.0000 C   0  0  0  0  0  0  0  0  0  0  0  0
    7.4364    2.9998    0.0000 C   0  0  0  0  0  0  0  0  0  0  0  0
    8.7255    4.1565    0.0000 C   0  0  0  0  0  0  0  0  0  0  0  0
    2.5369   -5.3133    0.0000 C   0  0  0  0  0  0  0  0  0  0  0  0
    9.3934    3.4122    0.0000 C   0  0  0  0  0  0  0  0  0  0  0  0
    9.0362    5.1070    0.0000 C   0  0  0  0  0  0  0  0  0  0  0  0
   10.3719    3.6184    0.0000 C   0  0  0  0  0  0  0  0  0  0  0  0
   10.0147    5.3133    0.0000 C   0  0  0  0  0  0  0  0  0  0  0  0
   10.6825    4.5690    0.0000 C   0  0  0  0  0  0  0  0  0  0  0  0
    6.4188   -1.8133    0.0000 H   0  0  0  0  0  0  0  0  0  0  0  0
    4.2514    0.5584    0.0000 H   0  0  0  0  0  0  0  0  0  0  0  0
    6.9184   -0.3133    0.0000 H   0  0  0  0  0  0  0  0  0  0  0  0
    2.0000   -2.6233    0.0000 H   0  0  0  0  0  0  0  0  0  0  0  0
    4.7546    2.0983    0.0000 H   0  0  0  0  0  0  0  0  0  0  0  0
    7.4217    1.2266    0.0000 H   0  0  0  0  0  0  0  0  0  0  0  0
    2.8660    0.4967    0.0000 H   0  0  0  0  0  0  0  0  0  0  0  0
    3.9399    0.4967    0.0000 H   0  0  0  0  0  0  0  0  0  0  0  0
    6.0438    3.2550    0.0000 H   0  0  0  0  0  0  0  0  0  0  0  0
    2.0000   -4.0033    0.0000 H   0  0  0  0  0  0  0  0  0  0  0  0
    7.3330    4.4118    0.0000 H   0  0  0  0  0  0  0  0  0  0  0  0
    1.9169   -5.3133    0.0000 H   0  0  0  0  0  0  0  0  0  0  0  0
    2.5369   -5.9333    0.0000 H   0  0  0  0  0  0  0  0  0  0  0  0
    3.1569   -5.3133    0.0000 H   0  0  0  0  0  0  0  0  0  0  0  0
    9.2008    2.8229    0.0000 H   0  0  0  0  0  0  0  0  0  0  0  0
    8.6221    5.5685    0.0000 H   0  0  0  0  0  0  0  0  0  0  0  0
   10.2073    5.9026    0.0000 H   0  0  0  0  0  0  0  0  0  0  0  0
   11.2892    4.6968    0.0000 H   0  0  0  0  0  0  0  0  0  0  0  0
  1 29  1  0  0  0  0
  2 12  1  0  0  0  0
  2 15  1  0  0  0  0
  3 23  2  0  0  0  0
  4 24  2  0  0  0  0
  5 16  2  0  0  0  0
  5 19  1  0  0  0  0
  6 16  1  0  0  0  0
  6 38  1  0  0  0  0
  6 39  1  0  0  0  0
  7 20  1  0  0  0  0
  7 24  1  0  0  0  0
  7 40  1  0  0  0  0
  8 23  1  0  0  0  0
  8 26  1  0  0  0  0
  8 41  1  0  0  0  0
  9 24  1  0  0  0  0
  9 25  1  0  0  0  0
  9 42  1  0  0  0  0
 10 11  1  0  0  0  0
 10 12  2  0  0  0  0
 10 16  1  0  0  0  0
 11 13  1  0  0  0  0
 11 15  2  0  0  0  0
 12 14  1  0  0  0  0
 13 17  2  0  0  0  0
 13 18  1  0  0  0  0
 14 19  2  0  0  0  0
 14 23  1  0  0  0  0
 15 32  1  0  0  0  0
 17 21  1  0  0  0  0
 17 33  1  0  0  0  0
 18 22  2  0  0  0  0
 18 34  1  0  0  0  0
 19 35  1  0  0  0  0
 20 21  2  0  0  0  0
 20 22  1  0  0  0  0
 21 36  1  0  0  0  0
 22 37  1  0  0  0  0
 25 27  2  0  0  0  0
 25 28  1  0  0  0  0
 26 43  1  0  0  0  0
 26 44  1  0  0  0  0
 26 45  1  0  0  0  0
 27 29  1  0  0  0  0
 27 46  1  0  0  0  0
 28 30  2  0  0  0  0
 28 47  1  0  0  0  0
 29 31  2  0  0  0  0
 30 31  1  0  0  0  0
 30 48  1  0  0  0  0
 31 49  1  0  0  0  0
M  END
> <PUBCHEM_COMPOUND_CID>
49830356

> <PUBCHEM_COMPOUND_CANONICALIZED>
1

> <PUBCHEM_CACTVS_COMPLEXITY>
647

> <PUBCHEM_CACTVS_HBOND_ACCEPTOR>
5

> <PUBCHEM_CACTVS_HBOND_DONOR>
4

> <PUBCHEM_CACTVS_ROTATABLE_BOND>
4

> <PUBCHEM_CACTVS_SUBSKEYS>
AAADceB7sABEAAAAAAAAAAAAAAAAASAAAAA8YIAAAAAAAFgB/AAAHgYQAAAADArF2iS/8dLIEAisAjd3dACDgKk1DzAI2LEoZtiIIHrh15GEIYxolgLoyecYicCOiAAAAAIAAAAQAAAABAAAAAAAAAAAAA==

> <PUBCHEM_IUPAC_OPENEYE_NAME>
4-amino-3-[4-[(3-chlorophenyl)carbamoylamino]phenyl]-N-methyl-thieno[3,2-c]pyridine-7-carboxamide

> <PUBCHEM_IUPAC_CAS_NAME>
4-amino-3-[4-[[(3-chloroanilino)-oxomethyl]amino]phenyl]-N-methyl-7-thieno[3,2-c]pyridinecarboxamide

> <PUBCHEM_IUPAC_NAME_MARKUP>
4-amino-3-[4-[(3-chlorophenyl)carbamoylamino]phenyl]-<I>N</I>-methylthieno[3,2-c]pyridine-7-carboxamide

> <PUBCHEM_IUPAC_NAME>
4-amino-3-[4-[(3-chlorophenyl)carbamoylamino]phenyl]-N-methylthieno[3,2-c]pyridine-7-carboxamide

> <PUBCHEM_IUPAC_SYSTEMATIC_NAME>
4-azanyl-3-[4-[(3-chlorophenyl)carbamoylamino]phenyl]-N-methyl-thieno[3,2-c]pyridine-7-carboxamide

> <PUBCHEM_IUPAC_TRADITIONAL_NAME>
4-amino-3-[4-[(3-chlorophenyl)carbamoylamino]phenyl]-N-methyl-thieno[3,2-c]pyridine-7-carboxamide

> <PUBCHEM_IUPAC_INCHI>
InChI=1S/C22H18ClN5O2S/c1-25-21(29)16-10-26-20(24)18-17(11-31-19(16)18)12-5-7-14(8-6-12)27-22(30)28-15-4-2-3-13(23)9-15/h2-11H,1H3,(H2,24,26)(H,25,29)(H2,27,28,30)

> <PUBCHEM_IUPAC_INCHIKEY>
KNARVZUUCLIBGV-UHFFFAOYSA-N

> <PUBCHEM_XLOGP3_AA>
3.6

> <PUBCHEM_EXACT_MASS>
451.0869737

> <PUBCHEM_MOLECULAR_FORMULA>
C22H18ClN5O2S

> <PUBCHEM_MOLECULAR_WEIGHT>
451.9

> <PUBCHEM_SMILES>
CNC(=O)C1=CN=C(C2=C1SC=C2C3=CC=C(C=C3)NC(=O)NC4=CC(=CC=C4)Cl)N

> <PUBCHEM_OPENEYE_CAN_SMILES>
CNC(=O)C1=CN=C(C2=C1SC=C2C3=CC=C(C=C3)NC(=O)NC4=CC(=CC=C4)Cl)N

> <PUBCHEM_OPENEYE_ISO_SMILES>
CNC(=O)C1=CN=C(C2=C1SC=C2C3=CC=C(C=C3)NC(=O)NC4=CC(=CC=C4)Cl)N

> <PUBCHEM_CACTVS_TPSA>
137

> <PUBCHEM_MONOISOTOPIC_WEIGHT>
451.0869737

> <PUBCHEM_TOTAL_CHARGE>
0

> <PUBCHEM_HEAVY_ATOM_COUNT>
31

> <PUBCHEM_ATOM_DEF_STEREO_COUNT>
0

> <PUBCHEM_ATOM_UDEF_STEREO_COUNT>
0

> <PUBCHEM_BOND_DEF_STEREO_COUNT>
0

> <PUBCHEM_BOND_UDEF_STEREO_COUNT>
0

> <PUBCHEM_ISOTOPIC_ATOM_COUNT>
0

> <PUBCHEM_COMPONENT_COUNT>
1

> <PUBCHEM_CACTVS_TAUTO_COUNT>
-1

> <PUBCHEM_COORDINATE_TYPE>
1
5
255

> <PUBCHEM_BONDANNOTATIONS>
10  11  8
10  12  8
10  16  8
11  15  8
12  14  8
13  17  8
13  18  8
14  19  8
17  21  8
18  22  8
2  12  8
2  15  8
20  21  8
20  22  8
25  27  8
25  28  8
27  29  8
28  30  8
29  31  8
30  31  8
5  16  8
5  19  8

$$$$
