25101956
  -OEChem-03202503572D

 70 75  0     0  0  0  0  0  0999 V2000
    6.2296    2.5477    0.0000 O   0  0  0  0  0  0  0  0  0  0  0  0
    6.4591    0.2532    0.0000 O   0  0  0  0  0  0  0  0  0  0  0  0
    7.2314   -0.9315    0.0000 O   0  0  0  0  0  0  0  0  0  0  0  0
    4.4976   -0.4523    0.0000 N   0  0  0  0  0  0  0  0  0  0  0  0
    5.5882   -2.7891    0.0000 N   0  0  0  0  0  0  0  0  0  0  0  0
    4.0035   -1.9865    0.0000 C   0  0  0  0  0  0  0  0  0  0  0  0
    3.6929   -1.0359    0.0000 C   0  0  0  0  0  0  0  0  0  0  0  0
    4.9976   -1.9822    0.0000 C   0  0  0  0  0  0  0  0  0  0  0  0
    4.4976    0.5477    0.0000 C   0  0  0  0  0  0  0  0  0  0  0  0
    5.3023   -1.0359    0.0000 C   0  0  0  0  0  0  0  0  0  0  0  0
    3.3357   -2.7308    0.0000 C   0  0  0  0  0  0  0  0  0  0  0  0
    5.3636    1.0477    0.0000 C   0  0  0  0  0  0  0  0  0  0  0  0
    2.7144   -0.8297    0.0000 C   0  0  0  0  0  0  0  0  0  0  0  0
    3.6464   -3.6813    0.0000 C   0  0  0  0  0  0  0  0  0  0  0  0
    2.3572   -2.5246    0.0000 C   0  0  0  0  0  0  0  0  0  0  0  0
    2.0465   -1.5740    0.0000 C   0  0  0  0  0  0  0  0  0  0  0  0
    5.3636    2.0477    0.0000 C   0  0  0  0  0  0  0  0  0  0  0  0
    6.2528   -0.7253    0.0000 C   0  0  0  0  0  0  0  0  0  0  0  0
    2.9785   -4.4256    0.0000 C   0  0  0  0  0  0  0  0  0  0  0  0
    6.5031   -3.1927    0.0000 C   0  0  0  0  0  0  0  0  0  0  0  0
    4.6249   -3.8875    0.0000 C   0  0  0  0  0  0  0  0  0  0  0  0
    3.2892   -5.3761    0.0000 C   0  0  0  0  0  0  0  0  0  0  0  0
    2.0000   -4.2194    0.0000 C   0  0  0  0  0  0  0  0  0  0  0  0
    4.9355   -4.8380    0.0000 C   0  0  0  0  0  0  0  0  0  0  0  0
    6.2296    3.5477    0.0000 C   0  0  0  0  0  0  0  0  0  0  0  0
    4.2677   -5.5823    0.0000 C   0  0  0  0  0  0  0  0  0  0  0  0
    7.3101   -2.6021    0.0000 C   0  0  0  0  0  0  0  0  0  0  0  0
    6.6111   -4.1869    0.0000 C   0  0  0  0  0  0  0  0  0  0  0  0
    7.0957    4.0477    0.0000 C   0  0  0  0  0  0  0  0  0  0  0  0
    7.0957    5.0477    0.0000 C   0  0  0  0  0  0  0  0  0  0  0  0
    5.3636    4.0477    0.0000 C   0  0  0  0  0  0  0  0  0  0  0  0
    8.2251   -3.0057    0.0000 C   0  0  0  0  0  0  0  0  0  0  0  0
    7.5260   -4.5904    0.0000 C   0  0  0  0  0  0  0  0  0  0  0  0
    8.3330   -3.9999    0.0000 C   0  0  0  0  0  0  0  0  0  0  0  0
    7.9896    3.5130    0.0000 C   0  0  0  0  0  0  0  0  0  0  0  0
    6.2296    5.5477    0.0000 C   0  0  0  0  0  0  0  0  0  0  0  0
    5.3636    5.0477    0.0000 C   0  0  0  0  0  0  0  0  0  0  0  0
    7.9896    5.5823    0.0000 C   0  0  0  0  0  0  0  0  0  0  0  0
    8.8957    4.0268    0.0000 C   0  0  0  0  0  0  0  0  0  0  0  0
    8.8957    5.0685    0.0000 C   0  0  0  0  0  0  0  0  0  0  0  0
    4.2856    1.1303    0.0000 H   0  0  0  0  0  0  0  0  0  0  0  0
    3.8870    0.4400    0.0000 H   0  0  0  0  0  0  0  0  0  0  0  0
    5.5757    0.4651    0.0000 H   0  0  0  0  0  0  0  0  0  0  0  0
    5.9742    1.1553    0.0000 H   0  0  0  0  0  0  0  0  0  0  0  0
    2.5218   -0.2404    0.0000 H   0  0  0  0  0  0  0  0  0  0  0  0
    1.9431   -2.9860    0.0000 H   0  0  0  0  0  0  0  0  0  0  0  0
    5.3380   -3.3564    0.0000 H   0  0  0  0  0  0  0  0  0  0  0  0
    1.4398   -1.4462    0.0000 H   0  0  0  0  0  0  0  0  0  0  0  0
    5.1516    2.6303    0.0000 H   0  0  0  0  0  0  0  0  0  0  0  0
    4.7530    1.9400    0.0000 H   0  0  0  0  0  0  0  0  0  0  0  0
    5.0389   -3.4260    0.0000 H   0  0  0  0  0  0  0  0  0  0  0  0
    2.8751   -5.8376    0.0000 H   0  0  0  0  0  0  0  0  0  0  0  0
    2.1279   -3.6127    0.0000 H   0  0  0  0  0  0  0  0  0  0  0  0
    1.3933   -4.0915    0.0000 H   0  0  0  0  0  0  0  0  0  0  0  0
    1.8721   -4.8260    0.0000 H   0  0  0  0  0  0  0  0  0  0  0  0
    5.5422   -4.9659    0.0000 H   0  0  0  0  0  0  0  0  0  0  0  0
    4.4603   -6.1716    0.0000 H   0  0  0  0  0  0  0  0  0  0  0  0
    7.2432   -1.9858    0.0000 H   0  0  0  0  0  0  0  0  0  0  0  0
    6.1108   -4.5530    0.0000 H   0  0  0  0  0  0  0  0  0  0  0  0
    7.0484    0.4458    0.0000 H   0  0  0  0  0  0  0  0  0  0  0  0
    4.8267    3.7377    0.0000 H   0  0  0  0  0  0  0  0  0  0  0  0
    8.7254   -2.6395    0.0000 H   0  0  0  0  0  0  0  0  0  0  0  0
    7.5930   -5.2068    0.0000 H   0  0  0  0  0  0  0  0  0  0  0  0
    7.9824    2.8930    0.0000 H   0  0  0  0  0  0  0  0  0  0  0  0
    8.9003   -4.2501    0.0000 H   0  0  0  0  0  0  0  0  0  0  0  0
    6.2296    6.1677    0.0000 H   0  0  0  0  0  0  0  0  0  0  0  0
    4.8267    5.3577    0.0000 H   0  0  0  0  0  0  0  0  0  0  0  0
    7.9824    6.2023    0.0000 H   0  0  0  0  0  0  0  0  0  0  0  0
    9.4314    3.7148    0.0000 H   0  0  0  0  0  0  0  0  0  0  0  0
    9.4314    5.3806    0.0000 H   0  0  0  0  0  0  0  0  0  0  0  0
  1 17  1  0  0  0  0
  1 25  1  0  0  0  0
  2 18  1  0  0  0  0
  2 60  1  0  0  0  0
  3 18  2  0  0  0  0
  4  7  1  0  0  0  0
  4  9  1  0  0  0  0
  4 10  1  0  0  0  0
  5  8  1  0  0  0  0
  5 20  1  0  0  0  0
  5 47  1  0  0  0  0
  6  7  1  0  0  0  0
  6  8  1  0  0  0  0
  6 11  2  0  0  0  0
  7 13  2  0  0  0  0
  8 10  2  0  0  0  0
  9 12  1  0  0  0  0
  9 41  1  0  0  0  0
  9 42  1  0  0  0  0
 10 18  1  0  0  0  0
 11 14  1  0  0  0  0
 11 15  1  0  0  0  0
 12 17  1  0  0  0  0
 12 43  1  0  0  0  0
 12 44  1  0  0  0  0
 13 16  1  0  0  0  0
 13 45  1  0  0  0  0
 14 19  1  0  0  0  0
 14 21  2  0  0  0  0
 15 16  2  0  0  0  0
 15 46  1  0  0  0  0
 16 48  1  0  0  0  0
 17 49  1  0  0  0  0
 17 50  1  0  0  0  0
 19 22  2  0  0  0  0
 19 23  1  0  0  0  0
 20 27  2  0  0  0  0
 20 28  1  0  0  0  0
 21 24  1  0  0  0  0
 21 51  1  0  0  0  0
 22 26  1  0  0  0  0
 22 52  1  0  0  0  0
 23 53  1  0  0  0  0
 23 54  1  0  0  0  0
 23 55  1  0  0  0  0
 24 26  2  0  0  0  0
 24 56  1  0  0  0  0
 25 29  1  0  0  0  0
 25 31  2  0  0  0  0
 26 57  1  0  0  0  0
 27 32  1  0  0  0  0
 27 58  1  0  0  0  0
 28 33  2  0  0  0  0
 28 59  1  0  0  0  0
 29 30  1  0  0  0  0
 29 35  2  0  0  0  0
 30 36  1  0  0  0  0
 30 38  2  0  0  0  0
 31 37  1  0  0  0  0
 31 61  1  0  0  0  0
 32 34  2  0  0  0  0
 32 62  1  0  0  0  0
 33 34  1  0  0  0  0
 33 63  1  0  0  0  0
 34 65  1  0  0  0  0
 35 39  1  0  0  0  0
 35 64  1  0  0  0  0
 36 37  2  0  0  0  0
 36 66  1  0  0  0  0
 37 67  1  0  0  0  0
 38 40  1  0  0  0  0
 38 68  1  0  0  0  0
 39 40  2  0  0  0  0
 39 69  1  0  0  0  0
 40 70  1  0  0  0  0
M  END
> <PUBCHEM_COMPOUND_CID>
25101956

> <PUBCHEM_COMPOUND_CANONICALIZED>
1

> <PUBCHEM_CACTVS_COMPLEXITY>
814

> <PUBCHEM_CACTVS_HBOND_ACCEPTOR>
4

> <PUBCHEM_CACTVS_HBOND_DONOR>
2

> <PUBCHEM_CACTVS_ROTATABLE_BOND>
9

> <PUBCHEM_CACTVS_SUBSKEYS>
AAADceB/MAAAAAAAAAAAAAAAAAAAAWAAAAAwYMGDAAAAAFjB9AAAHgAQCAAADAzhngYyzvPMFgCoAyTyTASCiCAnMiAI2CG+fNgOZvrE9fuWfajm0BHY+UeY2fOegAABQAAaAAAAAAKAADQAAAAAAAAAAA==

> <PUBCHEM_IUPAC_OPENEYE_NAME>
3-anilino-1-[3-(1-naphthyloxy)propyl]-4-(o-tolyl)indole-2-carboxylic acid

> <PUBCHEM_IUPAC_CAS_NAME>
3-anilino-4-(2-methylphenyl)-1-[3-(1-naphthalenyloxy)propyl]-2-indolecarboxylic acid

> <PUBCHEM_IUPAC_NAME_MARKUP>
3-anilino-4-(2-methylphenyl)-1-(3-naphthalen-1-yloxypropyl)indole-2-carboxylic acid

> <PUBCHEM_IUPAC_NAME>
3-anilino-4-(2-methylphenyl)-1-(3-naphthalen-1-yloxypropyl)indole-2-carboxylic acid

> <PUBCHEM_IUPAC_SYSTEMATIC_NAME>
4-(2-methylphenyl)-1-(3-naphthalen-1-yloxypropyl)-3-phenylazanyl-indole-2-carboxylic acid

> <PUBCHEM_IUPAC_TRADITIONAL_NAME>
3-anilino-1-[3-(1-naphthoxy)propyl]-4-(o-tolyl)indole-2-carboxylic acid

> <PUBCHEM_IUPAC_INCHI>
InChI=1S/C35H30N2O3/c1-24-12-5-7-17-27(24)29-19-10-20-30-32(29)33(36-26-15-3-2-4-16-26)34(35(38)39)37(30)22-11-23-40-31-21-9-14-25-13-6-8-18-28(25)31/h2-10,12-21,36H,11,22-23H2,1H3,(H,38,39)

> <PUBCHEM_IUPAC_INCHIKEY>
IQIZCJIVSBDLES-UHFFFAOYSA-N

> <PUBCHEM_XLOGP3_AA>
9.2

> <PUBCHEM_EXACT_MASS>
526.22564282

> <PUBCHEM_MOLECULAR_FORMULA>
C35H30N2O3

> <PUBCHEM_MOLECULAR_WEIGHT>
526.6

> <PUBCHEM_SMILES>
CC1=CC=CC=C1C2=C3C(=CC=C2)N(C(=C3NC4=CC=CC=C4)C(=O)O)CCCOC5=CC=CC6=CC=CC=C65

> <PUBCHEM_OPENEYE_CAN_SMILES>
CC1=CC=CC=C1C2=C3C(=CC=C2)N(C(=C3NC4=CC=CC=C4)C(=O)O)CCCOC5=CC=CC6=CC=CC=C65

> <PUBCHEM_OPENEYE_ISO_SMILES>
CC1=CC=CC=C1C2=C3C(=CC=C2)N(C(=C3NC4=CC=CC=C4)C(=O)O)CCCOC5=CC=CC6=CC=CC=C65

> <PUBCHEM_CACTVS_TPSA>
63.5

> <PUBCHEM_MONOISOTOPIC_WEIGHT>
526.22564282

> <PUBCHEM_TOTAL_CHARGE>
0

> <PUBCHEM_HEAVY_ATOM_COUNT>
40

> <PUBCHEM_ATOM_DEF_STEREO_COUNT>
0

> <PUBCHEM_ATOM_UDEF_STEREO_COUNT>
0

> <PUBCHEM_BOND_DEF_STEREO_COUNT>
0

> <PUBCHEM_BOND_UDEF_STEREO_COUNT>
0

> <PUBCHEM_ISOTOPIC_ATOM_COUNT>
0

> <PUBCHEM_COMPONENT_COUNT>
1

> <PUBCHEM_CACTVS_TAUTO_COUNT>
-1

> <PUBCHEM_COORDINATE_TYPE>
1
5
255

> <PUBCHEM_BONDANNOTATIONS>
11  15  8
13  16  8
14  19  8
14  21  8
15  16  8
19  22  8
20  27  8
20  28  8
21  24  8
22  26  8
24  26  8
25  29  8
25  31  8
27  32  8
28  33  8
29  30  8
29  35  8
30  36  8
30  38  8
31  37  8
32  34  8
33  34  8
35  39  8
36  37  8
38  40  8
39  40  8
4  10  8
4  7  8
6  11  8
6  7  8
6  8  8
7  13  8
8  10  8

$$$$
