25012088
  -OEChem-03202501082D

 73 78  0     0  0  0  0  0  0999 V2000
    6.1840    0.2633    0.0000 O   0  0  0  0  0  0  0  0  0  0  0  0
   14.9102    3.2874    0.0000 O   0  0  0  0  0  0  0  0  0  0  0  0
    3.5840    0.7533    0.0000 N   0  0  0  0  0  0  0  0  0  0  0  0
    9.7141   -0.7126    0.0000 N   0  0  0  0  0  0  0  0  0  0  0  0
    9.7141    2.2874    0.0000 N   0  0  0  0  0  0  0  0  0  0  0  0
   10.5801    0.7874    0.0000 N   0  0  0  0  0  0  0  0  0  0  0  0
   13.0492   -2.8796    0.0000 N   0  0  0  0  0  0  0  0  0  0  0  0
   14.0442    1.7874    0.0000 N   0  0  0  0  0  0  0  0  0  0  0  0
   12.6440   -3.7874    0.0000 N   0  0  0  0  0  0  0  0  0  0  0  0
    3.4756    1.7474    0.0000 C   0  0  0  0  0  0  0  0  0  0  0  0
    2.6720    0.3430    0.0000 C   0  0  0  0  0  0  0  0  0  0  0  0
    2.4967    1.9515    0.0000 C   0  0  0  0  0  0  0  0  0  0  0  0
    2.0000    1.0836    0.0000 C   0  0  0  0  0  0  0  0  0  0  0  0
    4.4519    0.2566    0.0000 C   0  0  0  0  0  0  0  0  0  0  0  0
    5.3160    0.7599    0.0000 C   0  0  0  0  0  0  0  0  0  0  0  0
    7.0480    0.7666    0.0000 C   0  0  0  0  0  0  0  0  0  0  0  0
    7.9541    0.2528    0.0000 C   0  0  0  0  0  0  0  0  0  0  0  0
    8.8480    0.7874    0.0000 C   0  0  0  0  0  0  0  0  0  0  0  0
    7.0480    1.8082    0.0000 C   0  0  0  0  0  0  0  0  0  0  0  0
    8.8480    1.7874    0.0000 C   0  0  0  0  0  0  0  0  0  0  0  0
    9.7141    0.2874    0.0000 C   0  0  0  0  0  0  0  0  0  0  0  0
    7.9541    2.3221    0.0000 C   0  0  0  0  0  0  0  0  0  0  0  0
   10.5801    1.7874    0.0000 C   0  0  0  0  0  0  0  0  0  0  0  0
   10.5801   -1.2126    0.0000 C   0  0  0  0  0  0  0  0  0  0  0  0
   11.4461    2.2874    0.0000 C   0  0  0  0  0  0  0  0  0  0  0  0
   10.5801   -2.2126    0.0000 C   0  0  0  0  0  0  0  0  0  0  0  0
   11.4461   -2.7126    0.0000 C   0  0  0  0  0  0  0  0  0  0  0  0
   12.3121   -2.2126    0.0000 C   0  0  0  0  0  0  0  0  0  0  0  0
   11.4461   -0.7126    0.0000 C   0  0  0  0  0  0  0  0  0  0  0  0
   12.3121    1.7874    0.0000 C   0  0  0  0  0  0  0  0  0  0  0  0
   13.1782    2.2874    0.0000 C   0  0  0  0  0  0  0  0  0  0  0  0
   12.3121   -1.2126    0.0000 C   0  0  0  0  0  0  0  0  0  0  0  0
   11.4461    3.2874    0.0000 C   0  0  0  0  0  0  0  0  0  0  0  0
   13.1782    3.2874    0.0000 C   0  0  0  0  0  0  0  0  0  0  0  0
   12.3121    3.7874    0.0000 C   0  0  0  0  0  0  0  0  0  0  0  0
   11.6553   -3.6844    0.0000 C   0  0  0  0  0  0  0  0  0  0  0  0
   15.7762    1.7874    0.0000 C   0  0  0  0  0  0  0  0  0  0  0  0
   14.9102    2.2874    0.0000 C   0  0  0  0  0  0  0  0  0  0  0  0
   16.6423    2.2874    0.0000 C   0  0  0  0  0  0  0  0  0  0  0  0
   17.5083    1.7874    0.0000 C   0  0  0  0  0  0  0  0  0  0  0  0
    4.0956    1.7498    0.0000 H   0  0  0  0  0  0  0  0  0  0  0  0
    3.5380    2.3642    0.0000 H   0  0  0  0  0  0  0  0  0  0  0  0
    2.1718   -0.0233    0.0000 H   0  0  0  0  0  0  0  0  0  0  0  0
    2.9841   -0.1927    0.0000 H   0  0  0  0  0  0  0  0  0  0  0  0
    2.6860    2.5419    0.0000 H   0  0  0  0  0  0  0  0  0  0  0  0
    1.9293    2.2015    0.0000 H   0  0  0  0  0  0  0  0  0  0  0  0
    1.4970    1.4461    0.0000 H   0  0  0  0  0  0  0  0  0  0  0  0
    1.5869    0.6212    0.0000 H   0  0  0  0  0  0  0  0  0  0  0  0
    4.0552   -0.2199    0.0000 H   0  0  0  0  0  0  0  0  0  0  0  0
    4.8523   -0.2168    0.0000 H   0  0  0  0  0  0  0  0  0  0  0  0
    5.7127    1.2364    0.0000 H   0  0  0  0  0  0  0  0  0  0  0  0
    4.9156    1.2334    0.0000 H   0  0  0  0  0  0  0  0  0  0  0  0
    7.9613   -0.3672    0.0000 H   0  0  0  0  0  0  0  0  0  0  0  0
    6.5123    2.1203    0.0000 H   0  0  0  0  0  0  0  0  0  0  0  0
    7.9613    2.9421    0.0000 H   0  0  0  0  0  0  0  0  0  0  0  0
    9.1771   -1.0226    0.0000 H   0  0  0  0  0  0  0  0  0  0  0  0
   10.0432   -2.5226    0.0000 H   0  0  0  0  0  0  0  0  0  0  0  0
   11.4461   -0.0926    0.0000 H   0  0  0  0  0  0  0  0  0  0  0  0
   12.3121    1.1674    0.0000 H   0  0  0  0  0  0  0  0  0  0  0  0
   12.8491   -0.9026    0.0000 H   0  0  0  0  0  0  0  0  0  0  0  0
   10.9092    3.5974    0.0000 H   0  0  0  0  0  0  0  0  0  0  0  0
   13.7151    3.5974    0.0000 H   0  0  0  0  0  0  0  0  0  0  0  0
   12.3121    4.4074    0.0000 H   0  0  0  0  0  0  0  0  0  0  0  0
   11.2413   -4.1458    0.0000 H   0  0  0  0  0  0  0  0  0  0  0  0
   13.6558   -2.7518    0.0000 H   0  0  0  0  0  0  0  0  0  0  0  0
   14.0442    1.1674    0.0000 H   0  0  0  0  0  0  0  0  0  0  0  0
   15.3777    1.3125    0.0000 H   0  0  0  0  0  0  0  0  0  0  0  0
   16.1748    1.3125    0.0000 H   0  0  0  0  0  0  0  0  0  0  0  0
   17.0408    2.7624    0.0000 H   0  0  0  0  0  0  0  0  0  0  0  0
   16.2437    2.7624    0.0000 H   0  0  0  0  0  0  0  0  0  0  0  0
   17.1983    1.2505    0.0000 H   0  0  0  0  0  0  0  0  0  0  0  0
   18.0452    1.4774    0.0000 H   0  0  0  0  0  0  0  0  0  0  0  0
   17.8183    2.3244    0.0000 H   0  0  0  0  0  0  0  0  0  0  0  0
  1 15  1  0  0  0  0
  1 16  1  0  0  0  0
  2 38  2  0  0  0  0
  3 10  1  0  0  0  0
  3 11  1  0  0  0  0
  3 14  1  0  0  0  0
  4 21  1  0  0  0  0
  4 24  1  0  0  0  0
  4 56  1  0  0  0  0
  5 20  1  0  0  0  0
  5 23  2  0  0  0  0
  6 21  2  0  0  0  0
  6 23  1  0  0  0  0
  7  9  1  0  0  0  0
  7 28  1  0  0  0  0
  7 65  1  0  0  0  0
  8 31  1  0  0  0  0
  8 38  1  0  0  0  0
  8 66  1  0  0  0  0
  9 36  2  0  0  0  0
 10 12  1  0  0  0  0
 10 41  1  0  0  0  0
 10 42  1  0  0  0  0
 11 13  1  0  0  0  0
 11 43  1  0  0  0  0
 11 44  1  0  0  0  0
 12 13  1  0  0  0  0
 12 45  1  0  0  0  0
 12 46  1  0  0  0  0
 13 47  1  0  0  0  0
 13 48  1  0  0  0  0
 14 15  1  0  0  0  0
 14 49  1  0  0  0  0
 14 50  1  0  0  0  0
 15 51  1  0  0  0  0
 15 52  1  0  0  0  0
 16 17  2  0  0  0  0
 16 19  1  0  0  0  0
 17 18  1  0  0  0  0
 17 53  1  0  0  0  0
 18 20  2  0  0  0  0
 18 21  1  0  0  0  0
 19 22  2  0  0  0  0
 19 54  1  0  0  0  0
 20 22  1  0  0  0  0
 22 55  1  0  0  0  0
 23 25  1  0  0  0  0
 24 26  2  0  0  0  0
 24 29  1  0  0  0  0
 25 30  2  0  0  0  0
 25 33  1  0  0  0  0
 26 27  1  0  0  0  0
 26 57  1  0  0  0  0
 27 28  2  0  0  0  0
 27 36  1  0  0  0  0
 28 32  1  0  0  0  0
 29 32  2  0  0  0  0
 29 58  1  0  0  0  0
 30 31  1  0  0  0  0
 30 59  1  0  0  0  0
 31 34  2  0  0  0  0
 32 60  1  0  0  0  0
 33 35  2  0  0  0  0
 33 61  1  0  0  0  0
 34 35  1  0  0  0  0
 34 62  1  0  0  0  0
 35 63  1  0  0  0  0
 36 64  1  0  0  0  0
 37 38  1  0  0  0  0
 37 39  1  0  0  0  0
 37 67  1  0  0  0  0
 37 68  1  0  0  0  0
 39 40  1  0  0  0  0
 39 69  1  0  0  0  0
 39 70  1  0  0  0  0
 40 71  1  0  0  0  0
 40 72  1  0  0  0  0
 40 73  1  0  0  0  0
M  END
> <PUBCHEM_COMPOUND_CID>
25012088

> <PUBCHEM_COMPOUND_CANONICALIZED>
1

> <PUBCHEM_CACTVS_COMPLEXITY>
811

> <PUBCHEM_CACTVS_HBOND_ACCEPTOR>
7

> <PUBCHEM_CACTVS_HBOND_DONOR>
3

> <PUBCHEM_CACTVS_ROTATABLE_BOND>
10

> <PUBCHEM_CACTVS_SUBSKEYS>
AAADcfB7sAAAAAAAAAAAAAAAAAAAAWLAAAA8YMEAAAAAAFix/gAAHgAYAAAADAzhnwY/9vfrFACqAzd3dACSjCkhoqAZuSE+bJiOLvLE+duHvCjs3BPY6CewwBAOAECBQAACAAAAgQKAAAQAAAAAAAAAAA==

> <PUBCHEM_IUPAC_OPENEYE_NAME>
N-[3-[4-(1H-indazol-5-ylamino)-6-(2-pyrrolidin-1-ylethoxy)quinazolin-2-yl]phenyl]butanamide

> <PUBCHEM_IUPAC_CAS_NAME>
N-[3-[4-(1H-indazol-5-ylamino)-6-[2-(1-pyrrolidinyl)ethoxy]-2-quinazolinyl]phenyl]butanamide

> <PUBCHEM_IUPAC_NAME_MARKUP>
<I>N</I>-[3-[4-(1<I>H</I>-indazol-5-ylamino)-6-(2-pyrrolidin-1-ylethoxy)quinazolin-2-yl]phenyl]butanamide

> <PUBCHEM_IUPAC_NAME>
N-[3-[4-(1H-indazol-5-ylamino)-6-(2-pyrrolidin-1-ylethoxy)quinazolin-2-yl]phenyl]butanamide

> <PUBCHEM_IUPAC_SYSTEMATIC_NAME>
N-[3-[4-(1H-indazol-5-ylamino)-6-(2-pyrrolidin-1-ylethoxy)quinazolin-2-yl]phenyl]butanamide

> <PUBCHEM_IUPAC_TRADITIONAL_NAME>
N-[3-[4-(1H-indazol-5-ylamino)-6-(2-pyrrolidinoethoxy)quinazolin-2-yl]phenyl]butyramide

> <PUBCHEM_IUPAC_INCHI>
InChI=1S/C31H33N7O2/c1-2-6-29(39)33-23-8-5-7-21(17-23)30-35-28-12-10-25(40-16-15-38-13-3-4-14-38)19-26(28)31(36-30)34-24-9-11-27-22(18-24)20-32-37-27/h5,7-12,17-20H,2-4,6,13-16H2,1H3,(H,32,37)(H,33,39)(H,34,35,36)

> <PUBCHEM_IUPAC_INCHIKEY>
HTROFVQKJODSCL-UHFFFAOYSA-N

> <PUBCHEM_XLOGP3_AA>
5.2

> <PUBCHEM_EXACT_MASS>
535.26957332

> <PUBCHEM_MOLECULAR_FORMULA>
C31H33N7O2

> <PUBCHEM_MOLECULAR_WEIGHT>
535.6

> <PUBCHEM_SMILES>
CCCC(=O)NC1=CC=CC(=C1)C2=NC3=C(C=C(C=C3)OCCN4CCCC4)C(=N2)NC5=CC6=C(C=C5)NN=C6

> <PUBCHEM_OPENEYE_CAN_SMILES>
CCCC(=O)NC1=CC=CC(=C1)C2=NC3=C(C=C(C=C3)OCCN4CCCC4)C(=N2)NC5=CC6=C(C=C5)NN=C6

> <PUBCHEM_OPENEYE_ISO_SMILES>
CCCC(=O)NC1=CC=CC(=C1)C2=NC3=C(C=C(C=C3)OCCN4CCCC4)C(=N2)NC5=CC6=C(C=C5)NN=C6

> <PUBCHEM_CACTVS_TPSA>
108

> <PUBCHEM_MONOISOTOPIC_WEIGHT>
535.26957332

> <PUBCHEM_TOTAL_CHARGE>
0

> <PUBCHEM_HEAVY_ATOM_COUNT>
40

> <PUBCHEM_ATOM_DEF_STEREO_COUNT>
0

> <PUBCHEM_ATOM_UDEF_STEREO_COUNT>
0

> <PUBCHEM_BOND_DEF_STEREO_COUNT>
0

> <PUBCHEM_BOND_UDEF_STEREO_COUNT>
0

> <PUBCHEM_ISOTOPIC_ATOM_COUNT>
0

> <PUBCHEM_COMPONENT_COUNT>
1

> <PUBCHEM_CACTVS_TAUTO_COUNT>
-1

> <PUBCHEM_COORDINATE_TYPE>
1
5
255

> <PUBCHEM_BONDANNOTATIONS>
16  17  8
16  19  8
17  18  8
18  20  8
18  21  8
19  22  8
20  22  8
24  26  8
24  29  8
25  30  8
25  33  8
26  27  8
27  28  8
27  36  8
28  32  8
29  32  8
30  31  8
31  34  8
33  35  8
34  35  8
5  20  8
5  23  8
6  21  8
6  23  8
7  28  8
7  9  8
9  36  8

$$$$
