45908781
  -OEChem-03202502152D

 46 49  0     0  0  0  0  0  0999 V2000
    7.9244    1.2231    0.0000 O   0  0  0  0  0  0  0  0  0  0  0  0
    4.3211    1.3487    0.0000 O   0  0  0  0  0  0  0  0  0  0  0  0
    5.2531    4.2003    0.0000 O   0  0  0  0  0  0  0  0  0  0  0  0
    3.7320   -1.6508    0.0000 N   0  0  0  0  0  0  0  0  0  0  0  0
    4.6783   -1.9556    0.0000 N   0  0  0  0  0  0  0  0  0  0  0  0
    5.9674    0.8107    0.0000 N   0  0  0  0  0  0  0  0  0  0  0  0
    2.8660   -0.1508    0.0000 N   0  0  0  0  0  0  0  0  0  0  0  0
    3.7320   -0.6508    0.0000 C   0  0  0  0  0  0  0  0  0  0  0  0
    2.8660   -2.1508    0.0000 C   0  0  0  0  0  0  0  0  0  0  0  0
    4.6783   -0.3461    0.0000 C   0  0  0  0  0  0  0  0  0  0  0  0
    2.8660   -3.1508    0.0000 C   0  0  0  0  0  0  0  0  0  0  0  0
    5.2619   -1.1508    0.0000 C   0  0  0  0  0  0  0  0  0  0  0  0
    2.0000   -1.6508    0.0000 C   0  0  0  0  0  0  0  0  0  0  0  0
    4.9889    0.6044    0.0000 C   0  0  0  0  0  0  0  0  0  0  0  0
    6.2781    1.7612    0.0000 C   0  0  0  0  0  0  0  0  0  0  0  0
    2.0000   -0.6508    0.0000 C   0  0  0  0  0  0  0  0  0  0  0  0
    2.0000   -3.6508    0.0000 C   0  0  0  0  0  0  0  0  0  0  0  0
    3.7320   -3.6508    0.0000 C   0  0  0  0  0  0  0  0  0  0  0  0
    7.2566    1.9674    0.0000 C   0  0  0  0  0  0  0  0  0  0  0  0
    5.6103    2.5055    0.0000 C   0  0  0  0  0  0  0  0  0  0  0  0
    5.9209    3.4560    0.0000 C   0  0  0  0  0  0  0  0  0  0  0  0
    7.5673    2.9179    0.0000 C   0  0  0  0  0  0  0  0  0  0  0  0
    2.0000   -4.6508    0.0000 C   0  0  0  0  0  0  0  0  0  0  0  0
    3.7320   -4.6508    0.0000 C   0  0  0  0  0  0  0  0  0  0  0  0
    6.8994    3.6622    0.0000 C   0  0  0  0  0  0  0  0  0  0  0  0
    2.8660   -5.1508    0.0000 C   0  0  0  0  0  0  0  0  0  0  0  0
    8.9030    1.4293    0.0000 C   0  0  0  0  0  0  0  0  0  0  0  0
    5.5637    5.1508    0.0000 C   0  0  0  0  0  0  0  0  0  0  0  0
    5.8819   -1.1508    0.0000 H   0  0  0  0  0  0  0  0  0  0  0  0
    1.4631   -1.9608    0.0000 H   0  0  0  0  0  0  0  0  0  0  0  0
    6.3815    0.3492    0.0000 H   0  0  0  0  0  0  0  0  0  0  0  0
    1.4631   -0.3408    0.0000 H   0  0  0  0  0  0  0  0  0  0  0  0
    1.4631   -3.3408    0.0000 H   0  0  0  0  0  0  0  0  0  0  0  0
    4.2690   -3.3408    0.0000 H   0  0  0  0  0  0  0  0  0  0  0  0
    5.0036    2.3776    0.0000 H   0  0  0  0  0  0  0  0  0  0  0  0
    8.1739    3.0458    0.0000 H   0  0  0  0  0  0  0  0  0  0  0  0
    1.4631   -4.9608    0.0000 H   0  0  0  0  0  0  0  0  0  0  0  0
    4.2690   -4.9608    0.0000 H   0  0  0  0  0  0  0  0  0  0  0  0
    7.0920    4.2515    0.0000 H   0  0  0  0  0  0  0  0  0  0  0  0
    2.8660   -5.7708    0.0000 H   0  0  0  0  0  0  0  0  0  0  0  0
    9.0308    0.8226    0.0000 H   0  0  0  0  0  0  0  0  0  0  0  0
    9.5096    1.5572    0.0000 H   0  0  0  0  0  0  0  0  0  0  0  0
    8.7751    2.0360    0.0000 H   0  0  0  0  0  0  0  0  0  0  0  0
    6.1531    4.9582    0.0000 H   0  0  0  0  0  0  0  0  0  0  0  0
    5.7564    5.7401    0.0000 H   0  0  0  0  0  0  0  0  0  0  0  0
    4.9744    5.3434    0.0000 H   0  0  0  0  0  0  0  0  0  0  0  0
  1 19  1  0  0  0  0
  1 27  1  0  0  0  0
  2 14  2  0  0  0  0
  3 21  1  0  0  0  0
  3 28  1  0  0  0  0
  4  5  1  0  0  0  0
  4  8  1  0  0  0  0
  4  9  1  0  0  0  0
  5 12  2  0  0  0  0
  6 14  1  0  0  0  0
  6 15  1  0  0  0  0
  6 31  1  0  0  0  0
  7  8  1  0  0  0  0
  7 16  2  0  0  0  0
  8 10  2  0  0  0  0
  9 11  1  0  0  0  0
  9 13  2  0  0  0  0
 10 12  1  0  0  0  0
 10 14  1  0  0  0  0
 11 17  2  0  0  0  0
 11 18  1  0  0  0  0
 12 29  1  0  0  0  0
 13 16  1  0  0  0  0
 13 30  1  0  0  0  0
 15 19  2  0  0  0  0
 15 20  1  0  0  0  0
 16 32  1  0  0  0  0
 17 23  1  0  0  0  0
 17 33  1  0  0  0  0
 18 24  2  0  0  0  0
 18 34  1  0  0  0  0
 19 22  1  0  0  0  0
 20 21  2  0  0  0  0
 20 35  1  0  0  0  0
 21 25  1  0  0  0  0
 22 25  2  0  0  0  0
 22 36  1  0  0  0  0
 23 26  2  0  0  0  0
 23 37  1  0  0  0  0
 24 26  1  0  0  0  0
 24 38  1  0  0  0  0
 25 39  1  0  0  0  0
 26 40  1  0  0  0  0
 27 41  1  0  0  0  0
 27 42  1  0  0  0  0
 27 43  1  0  0  0  0
 28 44  1  0  0  0  0
 28 45  1  0  0  0  0
 28 46  1  0  0  0  0
M  END
> <PUBCHEM_COMPOUND_CID>
45908781

> <PUBCHEM_COMPOUND_CANONICALIZED>
1

> <PUBCHEM_CACTVS_COMPLEXITY>
528

> <PUBCHEM_CACTVS_HBOND_ACCEPTOR>
5

> <PUBCHEM_CACTVS_HBOND_DONOR>
1

> <PUBCHEM_CACTVS_ROTATABLE_BOND>
5

> <PUBCHEM_CACTVS_SUBSKEYS>
AAADceB7sAAAAAAAAAAAAAAAAAAAAWAAAAA8YIAAAAAAAFgB9AAAHgAYAAAADAzBnwY/9p7IFACqAzd3dACSjCs1oqAd2CE/bNiOLurE+duFtKhu3BvY6OfQ0IMOAQAAAgAAEAACAAAEAAAgAAAAAAAAAA==

> <PUBCHEM_IUPAC_OPENEYE_NAME>
N-(2,5-dimethoxyphenyl)-7-phenyl-pyrazolo[1,5-a]pyrimidine-3-carboxamide

> <PUBCHEM_IUPAC_CAS_NAME>
N-(2,5-dimethoxyphenyl)-7-phenyl-3-pyrazolo[1,5-a]pyrimidinecarboxamide

> <PUBCHEM_IUPAC_NAME_MARKUP>
<I>N</I>-(2,5-dimethoxyphenyl)-7-phenylpyrazolo[1,5-a]pyrimidine-3-carboxamide

> <PUBCHEM_IUPAC_NAME>
N-(2,5-dimethoxyphenyl)-7-phenylpyrazolo[1,5-a]pyrimidine-3-carboxamide

> <PUBCHEM_IUPAC_SYSTEMATIC_NAME>
N-(2,5-dimethoxyphenyl)-7-phenyl-pyrazolo[1,5-a]pyrimidine-3-carboxamide

> <PUBCHEM_IUPAC_TRADITIONAL_NAME>
N-(2,5-dimethoxyphenyl)-7-phenyl-pyrazolo[1,5-a]pyrimidine-3-carboxamide

> <PUBCHEM_IUPAC_INCHI>
InChI=1S/C21H18N4O3/c1-27-15-8-9-19(28-2)17(12-15)24-21(26)16-13-23-25-18(10-11-22-20(16)25)14-6-4-3-5-7-14/h3-13H,1-2H3,(H,24,26)

> <PUBCHEM_IUPAC_INCHIKEY>
PDDNOJLLBVAHLR-UHFFFAOYSA-N

> <PUBCHEM_XLOGP3_AA>
2.8

> <PUBCHEM_EXACT_MASS>
374.13789045

> <PUBCHEM_MOLECULAR_FORMULA>
C21H18N4O3

> <PUBCHEM_MOLECULAR_WEIGHT>
374.4

> <PUBCHEM_SMILES>
COC1=CC(=C(C=C1)OC)NC(=O)C2=C3N=CC=C(N3N=C2)C4=CC=CC=C4

> <PUBCHEM_OPENEYE_CAN_SMILES>
COC1=CC(=C(C=C1)OC)NC(=O)C2=C3N=CC=C(N3N=C2)C4=CC=CC=C4

> <PUBCHEM_OPENEYE_ISO_SMILES>
COC1=CC(=C(C=C1)OC)NC(=O)C2=C3N=CC=C(N3N=C2)C4=CC=CC=C4

> <PUBCHEM_CACTVS_TPSA>
77.8

> <PUBCHEM_MONOISOTOPIC_WEIGHT>
374.13789045

> <PUBCHEM_TOTAL_CHARGE>
0

> <PUBCHEM_HEAVY_ATOM_COUNT>
28

> <PUBCHEM_ATOM_DEF_STEREO_COUNT>
0

> <PUBCHEM_ATOM_UDEF_STEREO_COUNT>
0

> <PUBCHEM_BOND_DEF_STEREO_COUNT>
0

> <PUBCHEM_BOND_UDEF_STEREO_COUNT>
0

> <PUBCHEM_ISOTOPIC_ATOM_COUNT>
0

> <PUBCHEM_COMPONENT_COUNT>
1

> <PUBCHEM_CACTVS_TAUTO_COUNT>
-1

> <PUBCHEM_COORDINATE_TYPE>
1
5
255

> <PUBCHEM_BONDANNOTATIONS>
10  12  8
11  17  8
11  18  8
13  16  8
15  19  8
15  20  8
17  23  8
18  24  8
19  22  8
20  21  8
21  25  8
22  25  8
23  26  8
24  26  8
4  5  8
4  8  8
4  9  8
5  12  8
7  16  8
7  8  8
8  10  8
9  13  8

$$$$
