5360741
  -OEChem-03202506362D

 32 34  0     0  0  0  0  0  0999 V2000
    7.2641   -0.9072    0.0000 O   0  0  0  0  0  0  0  0  0  0  0  0
    2.8680    0.6170    0.0000 O   0  0  0  0  0  0  0  0  0  0  0  0
    4.6497   -2.4418    0.0000 O   0  0  0  0  0  0  0  0  0  0  0  0
    9.0501    2.1380    0.0000 O   0  0  0  0  0  0  0  0  0  0  0  0
    6.3981   -2.4072    0.0000 O   0  0  0  0  0  0  0  0  0  0  0  0
    6.3981    0.5928    0.0000 C   0  0  0  0  0  0  0  0  0  0  0  0
    5.5320    0.0928    0.0000 C   0  0  0  0  0  0  0  0  0  0  0  0
    5.5320   -0.9072    0.0000 C   0  0  0  0  0  0  0  0  0  0  0  0
    6.3820    1.6344    0.0000 C   0  0  0  0  0  0  0  0  0  0  0  0
    7.2641    0.0928    0.0000 C   0  0  0  0  0  0  0  0  0  0  0  0
    4.6381    0.6275    0.0000 C   0  0  0  0  0  0  0  0  0  0  0  0
    4.6381   -1.4418    0.0000 C   0  0  0  0  0  0  0  0  0  0  0  0
    6.3981   -1.4072    0.0000 C   0  0  0  0  0  0  0  0  0  0  0  0
    7.2800    2.1621    0.0000 C   0  0  0  0  0  0  0  0  0  0  0  0
    8.1741    0.5997    0.0000 C   0  0  0  0  0  0  0  0  0  0  0  0
    3.7320    0.1137    0.0000 C   0  0  0  0  0  0  0  0  0  0  0  0
    8.1821    1.6413    0.0000 C   0  0  0  0  0  0  0  0  0  0  0  0
    3.7320   -0.9280    0.0000 C   0  0  0  0  0  0  0  0  0  0  0  0
    5.5103    2.1243    0.0000 C   0  0  0  0  0  0  0  0  0  0  0  0
    2.0000    0.1203    0.0000 C   0  0  0  0  0  0  0  0  0  0  0  0
    4.6453    1.2475    0.0000 H   0  0  0  0  0  0  0  0  0  0  0  0
    8.7074    0.2835    0.0000 H   0  0  0  0  0  0  0  0  0  0  0  0
    7.2777    2.7821    0.0000 H   0  0  0  0  0  0  0  0  0  0  0  0
    3.1963   -1.2400    0.0000 H   0  0  0  0  0  0  0  0  0  0  0  0
    5.8140    2.6648    0.0000 H   0  0  0  0  0  0  0  0  0  0  0  0
    4.9698    2.4281    0.0000 H   0  0  0  0  0  0  0  0  0  0  0  0
    5.2065    1.5838    0.0000 H   0  0  0  0  0  0  0  0  0  0  0  0
    4.1164   -2.7579    0.0000 H   0  0  0  0  0  0  0  0  0  0  0  0
    9.0525    2.7579    0.0000 H   0  0  0  0  0  0  0  0  0  0  0  0
    1.6921    0.6585    0.0000 H   0  0  0  0  0  0  0  0  0  0  0  0
    1.4619   -0.1876    0.0000 H   0  0  0  0  0  0  0  0  0  0  0  0
    2.3079   -0.4178    0.0000 H   0  0  0  0  0  0  0  0  0  0  0  0
  1 10  1  0  0  0  0
  1 13  1  0  0  0  0
  2 16  1  0  0  0  0
  2 20  1  0  0  0  0
  3 12  1  0  0  0  0
  3 28  1  0  0  0  0
  4 17  1  0  0  0  0
  4 29  1  0  0  0  0
  5 13  2  0  0  0  0
  6  7  1  0  0  0  0
  6  9  1  0  0  0  0
  6 10  2  0  0  0  0
  7  8  2  0  0  0  0
  7 11  1  0  0  0  0
  8 12  1  0  0  0  0
  8 13  1  0  0  0  0
  9 14  2  0  0  0  0
  9 19  1  0  0  0  0
 10 15  1  0  0  0  0
 11 16  2  0  0  0  0
 11 21  1  0  0  0  0
 12 18  2  0  0  0  0
 14 17  1  0  0  0  0
 14 23  1  0  0  0  0
 15 17  2  0  0  0  0
 15 22  1  0  0  0  0
 16 18  1  0  0  0  0
 18 24  1  0  0  0  0
 19 25  1  0  0  0  0
 19 26  1  0  0  0  0
 19 27  1  0  0  0  0
 20 30  1  0  0  0  0
 20 31  1  0  0  0  0
 20 32  1  0  0  0  0
M  END
> <PUBCHEM_COMPOUND_CID>
5360741

> <PUBCHEM_COMPOUND_CANONICALIZED>
1

> <PUBCHEM_CACTVS_COMPLEXITY>
384

> <PUBCHEM_CACTVS_HBOND_ACCEPTOR>
5

> <PUBCHEM_CACTVS_HBOND_DONOR>
2

> <PUBCHEM_CACTVS_ROTATABLE_BOND>
1

> <PUBCHEM_CACTVS_SUBSKEYS>
AAADccBwOAAAAAAAAAAAAAAAAAAAAAAAAAA0YIAAAAAAAACRQAAAGgAACAAADASAmAIyDoAABgCIAiDSCAACCAAkIAAAiAEGCMgMJzaGNRqCe2Cl4BUIuQeI7PzOoAABCAAYAABAAAIQADAAAAAAAAAAAA==

> <PUBCHEM_IUPAC_OPENEYE_NAME>
3,7-dihydroxy-9-methoxy-1-methyl-benzo[c]chromen-6-one

> <PUBCHEM_IUPAC_CAS_NAME>
3,7-dihydroxy-9-methoxy-1-methyl-6-benzo[c][1]benzopyranone

> <PUBCHEM_IUPAC_NAME_MARKUP>
3,7-dihydroxy-9-methoxy-1-methylbenzo[c]chromen-6-one

> <PUBCHEM_IUPAC_NAME>
3,7-dihydroxy-9-methoxy-1-methylbenzo[c]chromen-6-one

> <PUBCHEM_IUPAC_SYSTEMATIC_NAME>
9-methoxy-1-methyl-3,7-bis(oxidanyl)benzo[c]chromen-6-one

> <PUBCHEM_IUPAC_TRADITIONAL_NAME>
3,7-dihydroxy-9-methoxy-1-methyl-benzo[c]chromen-6-one

> <PUBCHEM_IUPAC_INCHI>
InChI=1S/C15H12O5/c1-7-3-8(16)4-12-13(7)10-5-9(19-2)6-11(17)14(10)15(18)20-12/h3-6,16-17H,1-2H3

> <PUBCHEM_IUPAC_INCHIKEY>
LCSDQFNUYFTXMT-UHFFFAOYSA-N

> <PUBCHEM_XLOGP3_AA>
3.2

> <PUBCHEM_EXACT_MASS>
272.06847348

> <PUBCHEM_MOLECULAR_FORMULA>
C15H12O5

> <PUBCHEM_MOLECULAR_WEIGHT>
272.25

> <PUBCHEM_SMILES>
CC1=CC(=CC2=C1C3=C(C(=CC(=C3)OC)O)C(=O)O2)O

> <PUBCHEM_OPENEYE_CAN_SMILES>
CC1=CC(=CC2=C1C3=C(C(=CC(=C3)OC)O)C(=O)O2)O

> <PUBCHEM_OPENEYE_ISO_SMILES>
CC1=CC(=CC2=C1C3=C(C(=CC(=C3)OC)O)C(=O)O2)O

> <PUBCHEM_CACTVS_TPSA>
76

> <PUBCHEM_MONOISOTOPIC_WEIGHT>
272.06847348

> <PUBCHEM_TOTAL_CHARGE>
0

> <PUBCHEM_HEAVY_ATOM_COUNT>
20

> <PUBCHEM_ATOM_DEF_STEREO_COUNT>
0

> <PUBCHEM_ATOM_UDEF_STEREO_COUNT>
0

> <PUBCHEM_BOND_DEF_STEREO_COUNT>
0

> <PUBCHEM_BOND_UDEF_STEREO_COUNT>
0

> <PUBCHEM_ISOTOPIC_ATOM_COUNT>
0

> <PUBCHEM_COMPONENT_COUNT>
1

> <PUBCHEM_CACTVS_TAUTO_COUNT>
-1

> <PUBCHEM_COORDINATE_TYPE>
1
5
255

> <PUBCHEM_BONDANNOTATIONS>
1  10  8
1  13  8
10  15  8
11  16  8
12  18  8
14  17  8
15  17  8
16  18  8
6  10  8
6  7  8
6  9  8
7  11  8
7  8  8
8  12  8
8  13  8
9  14  8

$$$$
