25206387
  -OEChem-03202502092D

 34 36  0     0  0  0  0  0  0999 V2000
    2.8660   -4.4026    0.0000 Cl  0  0  0  0  0  0  0  0  0  0  0  0
    2.0249    1.8045    0.0000 O   0  0  0  0  0  0  0  0  0  0  0  0
    3.7320    3.5116    0.0000 O   0  0  0  0  0  0  0  0  0  0  0  0
    3.7320    0.0974    0.0000 N   0  0  0  0  0  0  0  0  0  0  0  0
    5.4392    1.8045    0.0000 N   0  0  0  0  0  0  0  0  0  0  0  0
    6.9392    4.4026    0.0000 N   0  0  0  0  0  0  0  0  0  0  0  0
    3.7320    1.0974    0.0000 C   0  0  0  0  0  0  0  0  0  0  0  0
    4.4392    1.8045    0.0000 C   0  0  0  0  0  0  0  0  0  0  0  0
    2.8660   -0.4026    0.0000 C   0  0  0  0  0  0  0  0  0  0  0  0
    3.0249    1.8045    0.0000 C   0  0  0  0  0  0  0  0  0  0  0  0
    3.7320    2.5116    0.0000 C   0  0  0  0  0  0  0  0  0  0  0  0
    2.8660   -1.4026    0.0000 C   0  0  0  0  0  0  0  0  0  0  0  0
    5.9392    2.6705    0.0000 C   0  0  0  0  0  0  0  0  0  0  0  0
    2.0000   -1.9026    0.0000 C   0  0  0  0  0  0  0  0  0  0  0  0
    3.7320   -1.9026    0.0000 C   0  0  0  0  0  0  0  0  0  0  0  0
    2.0000   -2.9026    0.0000 C   0  0  0  0  0  0  0  0  0  0  0  0
    3.7320   -2.9026    0.0000 C   0  0  0  0  0  0  0  0  0  0  0  0
    6.9392    2.6705    0.0000 C   0  0  0  0  0  0  0  0  0  0  0  0
    5.4392    3.5366    0.0000 C   0  0  0  0  0  0  0  0  0  0  0  0
    2.8660   -3.4026    0.0000 C   0  0  0  0  0  0  0  0  0  0  0  0
    7.4392    3.5366    0.0000 C   0  0  0  0  0  0  0  0  0  0  0  0
    5.9392    4.4026    0.0000 C   0  0  0  0  0  0  0  0  0  0  0  0
    2.6540    0.1800    0.0000 H   0  0  0  0  0  0  0  0  0  0  0  0
    2.2554   -0.5103    0.0000 H   0  0  0  0  0  0  0  0  0  0  0  0
    4.2690   -0.2126    0.0000 H   0  0  0  0  0  0  0  0  0  0  0  0
    5.7492    1.2676    0.0000 H   0  0  0  0  0  0  0  0  0  0  0  0
    1.4631   -1.5926    0.0000 H   0  0  0  0  0  0  0  0  0  0  0  0
    4.2690   -1.5926    0.0000 H   0  0  0  0  0  0  0  0  0  0  0  0
    7.2492    2.1336    0.0000 H   0  0  0  0  0  0  0  0  0  0  0  0
    4.8192    3.5366    0.0000 H   0  0  0  0  0  0  0  0  0  0  0  0
    1.4631   -3.2126    0.0000 H   0  0  0  0  0  0  0  0  0  0  0  0
    4.2690   -3.2126    0.0000 H   0  0  0  0  0  0  0  0  0  0  0  0
    8.0592    3.5366    0.0000 H   0  0  0  0  0  0  0  0  0  0  0  0
    5.6292    4.9395    0.0000 H   0  0  0  0  0  0  0  0  0  0  0  0
  1 20  1  0  0  0  0
  2 10  2  0  0  0  0
  3 11  2  0  0  0  0
  4  7  1  0  0  0  0
  4  9  1  0  0  0  0
  4 25  1  0  0  0  0
  5  8  1  0  0  0  0
  5 13  1  0  0  0  0
  5 26  1  0  0  0  0
  6 21  2  0  0  0  0
  6 22  1  0  0  0  0
  7  8  2  0  0  0  0
  7 10  1  0  0  0  0
  8 11  1  0  0  0  0
  9 12  1  0  0  0  0
  9 23  1  0  0  0  0
  9 24  1  0  0  0  0
 10 11  1  0  0  0  0
 12 14  2  0  0  0  0
 12 15  1  0  0  0  0
 13 18  2  0  0  0  0
 13 19  1  0  0  0  0
 14 16  1  0  0  0  0
 14 27  1  0  0  0  0
 15 17  2  0  0  0  0
 15 28  1  0  0  0  0
 16 20  2  0  0  0  0
 16 31  1  0  0  0  0
 17 20  1  0  0  0  0
 17 32  1  0  0  0  0
 18 21  1  0  0  0  0
 18 29  1  0  0  0  0
 19 22  2  0  0  0  0
 19 30  1  0  0  0  0
 21 33  1  0  0  0  0
 22 34  1  0  0  0  0
M  END
> <PUBCHEM_COMPOUND_CID>
25206387

> <PUBCHEM_COMPOUND_CANONICALIZED>
1

> <PUBCHEM_CACTVS_COMPLEXITY>
478

> <PUBCHEM_CACTVS_HBOND_ACCEPTOR>
5

> <PUBCHEM_CACTVS_HBOND_DONOR>
2

> <PUBCHEM_CACTVS_ROTATABLE_BOND>
5

> <PUBCHEM_CACTVS_SUBSKEYS>
AAADccB7MAAEAAAAAAAAAAAAAABAAAAAAAA8QAAAAAAAAAABwAAAHgIQAAAADA7BmiQ8wJLIEACoArR3RACCgCAxByAI2KG4ZtgIIGrB0/GEJAhgkADIyUcQgAAOBAAAAAAAAAAIAAAAAAAAAAAAAAAAAA==

> <PUBCHEM_IUPAC_OPENEYE_NAME>
3-[(4-chlorophenyl)methylamino]-4-(4-pyridylamino)cyclobut-3-ene-1,2-dione

> <PUBCHEM_IUPAC_CAS_NAME>
3-[(4-chlorophenyl)methylamino]-4-(pyridin-4-ylamino)cyclobut-3-ene-1,2-dione

> <PUBCHEM_IUPAC_NAME_MARKUP>
3-[(4-chlorophenyl)methylamino]-4-(pyridin-4-ylamino)cyclobut-3-ene-1,2-dione

> <PUBCHEM_IUPAC_NAME>
3-[(4-chlorophenyl)methylamino]-4-(pyridin-4-ylamino)cyclobut-3-ene-1,2-dione

> <PUBCHEM_IUPAC_SYSTEMATIC_NAME>
3-[(4-chlorophenyl)methylamino]-4-(pyridin-4-ylamino)cyclobut-3-ene-1,2-dione

> <PUBCHEM_IUPAC_TRADITIONAL_NAME>
3-[(4-chlorobenzyl)amino]-4-(4-pyridylamino)cyclobut-3-ene-1,2-quinone

> <PUBCHEM_IUPAC_INCHI>
InChI=1S/C16H12ClN3O2/c17-11-3-1-10(2-4-11)9-19-13-14(16(22)15(13)21)20-12-5-7-18-8-6-12/h1-8,19H,9H2,(H,18,20)

> <PUBCHEM_IUPAC_INCHIKEY>
LCKDESRGCHSHHO-UHFFFAOYSA-N

> <PUBCHEM_XLOGP3_AA>
2.6

> <PUBCHEM_EXACT_MASS>
313.0618043

> <PUBCHEM_MOLECULAR_FORMULA>
C16H12ClN3O2

> <PUBCHEM_MOLECULAR_WEIGHT>
313.74

> <PUBCHEM_SMILES>
C1=CC(=CC=C1CNC2=C(C(=O)C2=O)NC3=CC=NC=C3)Cl

> <PUBCHEM_OPENEYE_CAN_SMILES>
C1=CC(=CC=C1CNC2=C(C(=O)C2=O)NC3=CC=NC=C3)Cl

> <PUBCHEM_OPENEYE_ISO_SMILES>
C1=CC(=CC=C1CNC2=C(C(=O)C2=O)NC3=CC=NC=C3)Cl

> <PUBCHEM_CACTVS_TPSA>
71.1

> <PUBCHEM_MONOISOTOPIC_WEIGHT>
313.0618043

> <PUBCHEM_TOTAL_CHARGE>
0

> <PUBCHEM_HEAVY_ATOM_COUNT>
22

> <PUBCHEM_ATOM_DEF_STEREO_COUNT>
0

> <PUBCHEM_ATOM_UDEF_STEREO_COUNT>
0

> <PUBCHEM_BOND_DEF_STEREO_COUNT>
0

> <PUBCHEM_BOND_UDEF_STEREO_COUNT>
0

> <PUBCHEM_ISOTOPIC_ATOM_COUNT>
0

> <PUBCHEM_COMPONENT_COUNT>
1

> <PUBCHEM_CACTVS_TAUTO_COUNT>
-1

> <PUBCHEM_COORDINATE_TYPE>
1
5
255

> <PUBCHEM_BONDANNOTATIONS>
10  11  8
12  14  8
12  15  8
13  18  8
13  19  8
14  16  8
15  17  8
16  20  8
17  20  8
18  21  8
19  22  8
6  21  8
6  22  8
7  10  8
7  8  8
8  11  8

$$$$
