49830902
  -OEChem-03202503192D

 35 37  0     0  0  0  0  0  0999 V2000
    9.7619    0.3133    0.0000 O   0  0  0  0  0  0  0  0  0  0  0  0
    4.6783   -1.3575    0.0000 N   0  0  0  0  0  0  0  0  0  0  0  0
    2.8660    0.4472    0.0000 N   0  0  0  0  0  0  0  0  0  0  0  0
    2.8660   -1.5528    0.0000 N   0  0  0  0  0  0  0  0  0  0  0  0
    4.6783    0.2520    0.0000 C   0  0  0  0  0  0  0  0  0  0  0  0
    5.2619   -0.5528    0.0000 C   0  0  0  0  0  0  0  0  0  0  0  0
    3.7320   -0.0527    0.0000 C   0  0  0  0  0  0  0  0  0  0  0  0
    4.9889    1.2025    0.0000 C   0  0  0  0  0  0  0  0  0  0  0  0
    6.2619   -0.5528    0.0000 C   0  0  0  0  0  0  0  0  0  0  0  0
    3.7320   -1.0528    0.0000 C   0  0  0  0  0  0  0  0  0  0  0  0
    4.3211    1.9468    0.0000 C   0  0  0  0  0  0  0  0  0  0  0  0
    6.7619   -1.4188    0.0000 C   0  0  0  0  0  0  0  0  0  0  0  0
    6.7619    0.3133    0.0000 C   0  0  0  0  0  0  0  0  0  0  0  0
    8.2619   -0.5528    0.0000 C   0  0  0  0  0  0  0  0  0  0  0  0
    7.7619   -1.4188    0.0000 C   0  0  0  0  0  0  0  0  0  0  0  0
    7.7619    0.3133    0.0000 C   0  0  0  0  0  0  0  0  0  0  0  0
    2.0000   -0.0527    0.0000 C   0  0  0  0  0  0  0  0  0  0  0  0
    2.0000   -1.0528    0.0000 C   0  0  0  0  0  0  0  0  0  0  0  0
    9.2619   -0.5528    0.0000 C   0  0  0  0  0  0  0  0  0  0  0  0
    9.7619   -1.4188    0.0000 C   0  0  0  0  0  0  0  0  0  0  0  0
    5.5359    0.9105    0.0000 H   0  0  0  0  0  0  0  0  0  0  0  0
    5.3715    1.6904    0.0000 H   0  0  0  0  0  0  0  0  0  0  0  0
    4.8709   -1.9468    0.0000 H   0  0  0  0  0  0  0  0  0  0  0  0
    4.7826    2.3609    0.0000 H   0  0  0  0  0  0  0  0  0  0  0  0
    3.9070    2.4083    0.0000 H   0  0  0  0  0  0  0  0  0  0  0  0
    3.8596    1.5327    0.0000 H   0  0  0  0  0  0  0  0  0  0  0  0
    6.4519   -1.9557    0.0000 H   0  0  0  0  0  0  0  0  0  0  0  0
    6.4519    0.8502    0.0000 H   0  0  0  0  0  0  0  0  0  0  0  0
    8.0719   -1.9557    0.0000 H   0  0  0  0  0  0  0  0  0  0  0  0
    8.0719    0.8502    0.0000 H   0  0  0  0  0  0  0  0  0  0  0  0
    1.4631    0.2572    0.0000 H   0  0  0  0  0  0  0  0  0  0  0  0
    1.4631   -1.3627    0.0000 H   0  0  0  0  0  0  0  0  0  0  0  0
    9.2249   -1.7288    0.0000 H   0  0  0  0  0  0  0  0  0  0  0  0
   10.0719   -1.9557    0.0000 H   0  0  0  0  0  0  0  0  0  0  0  0
   10.2988   -1.1088    0.0000 H   0  0  0  0  0  0  0  0  0  0  0  0
  1 19  2  0  0  0  0
  2  6  1  0  0  0  0
  2 10  1  0  0  0  0
  2 23  1  0  0  0  0
  3  7  2  0  0  0  0
  3 17  1  0  0  0  0
  4 10  2  0  0  0  0
  4 18  1  0  0  0  0
  5  6  2  0  0  0  0
  5  7  1  0  0  0  0
  5  8  1  0  0  0  0
  6  9  1  0  0  0  0
  7 10  1  0  0  0  0
  8 11  1  0  0  0  0
  8 21  1  0  0  0  0
  8 22  1  0  0  0  0
  9 12  2  0  0  0  0
  9 13  1  0  0  0  0
 11 24  1  0  0  0  0
 11 25  1  0  0  0  0
 11 26  1  0  0  0  0
 12 15  1  0  0  0  0
 12 27  1  0  0  0  0
 13 16  2  0  0  0  0
 13 28  1  0  0  0  0
 14 15  2  0  0  0  0
 14 16  1  0  0  0  0
 14 19  1  0  0  0  0
 15 29  1  0  0  0  0
 16 30  1  0  0  0  0
 17 18  2  0  0  0  0
 17 31  1  0  0  0  0
 18 32  1  0  0  0  0
 19 20  1  0  0  0  0
 20 33  1  0  0  0  0
 20 34  1  0  0  0  0
 20 35  1  0  0  0  0
M  END
> <PUBCHEM_COMPOUND_CID>
49830902

> <PUBCHEM_COMPOUND_CANONICALIZED>
1

> <PUBCHEM_CACTVS_COMPLEXITY>
352

> <PUBCHEM_CACTVS_HBOND_ACCEPTOR>
3

> <PUBCHEM_CACTVS_HBOND_DONOR>
1

> <PUBCHEM_CACTVS_ROTATABLE_BOND>
3

> <PUBCHEM_CACTVS_SUBSKEYS>
AAADccB7IAAAAAAAAAAAAAAAAAAAAWAAAAA8QAAAAAAAAFgB/AAAHgAQAAAADAzBnwQ/8L7JkACoA7Z3ZACCgC21EqAJ2SE4dNiIaPLA3dGUJQhogALIyacYiMCOQAAAAAAAAACAAAAAAAAAAAAAAAAAAA==

> <PUBCHEM_IUPAC_OPENEYE_NAME>
1-[4-(7-ethyl-5H-pyrrolo[2,3-b]pyrazin-6-yl)phenyl]ethanone

> <PUBCHEM_IUPAC_CAS_NAME>
1-[4-(7-ethyl-5H-pyrrolo[2,3-b]pyrazin-6-yl)phenyl]ethanone

> <PUBCHEM_IUPAC_NAME_MARKUP>
1-[4-(7-ethyl-5<I>H</I>-pyrrolo[2,3-b]pyrazin-6-yl)phenyl]ethanone

> <PUBCHEM_IUPAC_NAME>
1-[4-(7-ethyl-5H-pyrrolo[2,3-b]pyrazin-6-yl)phenyl]ethanone

> <PUBCHEM_IUPAC_SYSTEMATIC_NAME>
1-[4-(7-ethyl-5H-pyrrolo[2,3-b]pyrazin-6-yl)phenyl]ethanone

> <PUBCHEM_IUPAC_TRADITIONAL_NAME>
1-[4-(7-ethyl-5H-pyrrolo[2,3-b]pyrazin-6-yl)phenyl]ethanone

> <PUBCHEM_IUPAC_INCHI>
InChI=1S/C16H15N3O/c1-3-13-14(19-16-15(13)17-8-9-18-16)12-6-4-11(5-7-12)10(2)20/h4-9H,3H2,1-2H3,(H,18,19)

> <PUBCHEM_IUPAC_INCHIKEY>
QZPFUALVXZAFDD-UHFFFAOYSA-N

> <PUBCHEM_XLOGP3_AA>
2.5

> <PUBCHEM_EXACT_MASS>
265.121512110

> <PUBCHEM_MOLECULAR_FORMULA>
C16H15N3O

> <PUBCHEM_MOLECULAR_WEIGHT>
265.31

> <PUBCHEM_SMILES>
CCC1=C(NC2=NC=CN=C12)C3=CC=C(C=C3)C(=O)C

> <PUBCHEM_OPENEYE_CAN_SMILES>
CCC1=C(NC2=NC=CN=C12)C3=CC=C(C=C3)C(=O)C

> <PUBCHEM_OPENEYE_ISO_SMILES>
CCC1=C(NC2=NC=CN=C12)C3=CC=C(C=C3)C(=O)C

> <PUBCHEM_CACTVS_TPSA>
58.6

> <PUBCHEM_MONOISOTOPIC_WEIGHT>
265.121512110

> <PUBCHEM_TOTAL_CHARGE>
0

> <PUBCHEM_HEAVY_ATOM_COUNT>
20

> <PUBCHEM_ATOM_DEF_STEREO_COUNT>
0

> <PUBCHEM_ATOM_UDEF_STEREO_COUNT>
0

> <PUBCHEM_BOND_DEF_STEREO_COUNT>
0

> <PUBCHEM_BOND_UDEF_STEREO_COUNT>
0

> <PUBCHEM_ISOTOPIC_ATOM_COUNT>
0

> <PUBCHEM_COMPONENT_COUNT>
1

> <PUBCHEM_CACTVS_TAUTO_COUNT>
-1

> <PUBCHEM_COORDINATE_TYPE>
1
5
255

> <PUBCHEM_BONDANNOTATIONS>
12  15  8
13  16  8
14  15  8
14  16  8
17  18  8
2  10  8
2  6  8
3  17  8
3  7  8
4  10  8
4  18  8
5  6  8
5  7  8
7  10  8
9  12  8
9  13  8

$$$$
