49830699
  -OEChem-03202503462D

 36 38  0     0  0  0  0  0  0999 V2000
    2.0000   -3.6142    0.0000 F   0  0  0  0  0  0  0  0  0  0  0  0
    2.3660   -2.2482    0.0000 F   0  0  0  0  0  0  0  0  0  0  0  0
    3.3660   -3.9802    0.0000 F   0  0  0  0  0  0  0  0  0  0  0  0
    8.0784   -0.0596    0.0000 O   0  0  0  0  0  0  0  0  0  0  0  0
    6.3465   -0.0796    0.0000 N   0  0  0  0  0  0  0  0  0  0  0  0
    6.3580   -3.1488    0.0000 N   0  0  0  0  0  0  0  0  0  0  0  0
    7.1951    1.4303    0.0000 N   0  0  0  0  0  0  0  0  0  0  0  0
    8.0437    2.9402    0.0000 N   0  0  0  0  0  0  0  0  0  0  0  0
   11.4960    3.9802    0.0000 N   0  0  0  0  0  0  0  0  0  0  0  0
    5.4641   -1.6142    0.0000 C   0  0  0  0  0  0  0  0  0  0  0  0
    5.4641   -2.6142    0.0000 C   0  0  0  0  0  0  0  0  0  0  0  0
    6.3580   -1.0795    0.0000 C   0  0  0  0  0  0  0  0  0  0  0  0
    3.7320   -2.6142    0.0000 C   0  0  0  0  0  0  0  0  0  0  0  0
    4.5981   -1.1142    0.0000 C   0  0  0  0  0  0  0  0  0  0  0  0
    4.5981   -3.1142    0.0000 C   0  0  0  0  0  0  0  0  0  0  0  0
    3.7320   -1.6142    0.0000 C   0  0  0  0  0  0  0  0  0  0  0  0
    7.2641   -1.5934    0.0000 C   0  0  0  0  0  0  0  0  0  0  0  0
    2.8660   -3.1142    0.0000 C   0  0  0  0  0  0  0  0  0  0  0  0
    7.2641   -2.6350    0.0000 C   0  0  0  0  0  0  0  0  0  0  0  0
    7.2067    0.4304    0.0000 C   0  0  0  0  0  0  0  0  0  0  0  0
    8.0553    1.9403    0.0000 C   0  0  0  0  0  0  0  0  0  0  0  0
    8.9270    1.4503    0.0000 C   0  0  0  0  0  0  0  0  0  0  0  0
    9.7872    1.9603    0.0000 C   0  0  0  0  0  0  0  0  0  0  0  0
    9.7757    2.9603    0.0000 C   0  0  0  0  0  0  0  0  0  0  0  0
    8.9039    3.4502    0.0000 C   0  0  0  0  0  0  0  0  0  0  0  0
   10.6358    3.4702    0.0000 C   0  0  0  0  0  0  0  0  0  0  0  0
    4.5981   -0.4942    0.0000 H   0  0  0  0  0  0  0  0  0  0  0  0
    4.5981   -3.7342    0.0000 H   0  0  0  0  0  0  0  0  0  0  0  0
    3.1951   -1.3042    0.0000 H   0  0  0  0  0  0  0  0  0  0  0  0
    7.7998   -1.2813    0.0000 H   0  0  0  0  0  0  0  0  0  0  0  0
    5.8060    0.2242    0.0000 H   0  0  0  0  0  0  0  0  0  0  0  0
    7.7998   -2.9471    0.0000 H   0  0  0  0  0  0  0  0  0  0  0  0
    6.6546    1.7341    0.0000 H   0  0  0  0  0  0  0  0  0  0  0  0
    8.9342    0.8304    0.0000 H   0  0  0  0  0  0  0  0  0  0  0  0
   10.3277    1.6566    0.0000 H   0  0  0  0  0  0  0  0  0  0  0  0
    8.8967    4.0702    0.0000 H   0  0  0  0  0  0  0  0  0  0  0  0
  1 18  1  0  0  0  0
  2 18  1  0  0  0  0
  3 18  1  0  0  0  0
  4 20  2  0  0  0  0
  5 12  1  0  0  0  0
  5 20  1  0  0  0  0
  5 31  1  0  0  0  0
  6 11  2  0  0  0  0
  6 19  1  0  0  0  0
  7 20  1  0  0  0  0
  7 21  1  0  0  0  0
  7 33  1  0  0  0  0
  8 21  2  0  0  0  0
  8 25  1  0  0  0  0
  9 26  3  0  0  0  0
 10 11  1  0  0  0  0
 10 12  2  0  0  0  0
 10 14  1  0  0  0  0
 11 15  1  0  0  0  0
 12 17  1  0  0  0  0
 13 15  2  0  0  0  0
 13 16  1  0  0  0  0
 13 18  1  0  0  0  0
 14 16  2  0  0  0  0
 14 27  1  0  0  0  0
 15 28  1  0  0  0  0
 16 29  1  0  0  0  0
 17 19  2  0  0  0  0
 17 30  1  0  0  0  0
 19 32  1  0  0  0  0
 21 22  1  0  0  0  0
 22 23  2  0  0  0  0
 22 34  1  0  0  0  0
 23 24  1  0  0  0  0
 23 35  1  0  0  0  0
 24 25  2  0  0  0  0
 24 26  1  0  0  0  0
 25 36  1  0  0  0  0
M  END
> <PUBCHEM_COMPOUND_CID>
49830699

> <PUBCHEM_COMPOUND_CANONICALIZED>
1

> <PUBCHEM_CACTVS_COMPLEXITY>
560

> <PUBCHEM_CACTVS_HBOND_ACCEPTOR>
7

> <PUBCHEM_CACTVS_HBOND_DONOR>
2

> <PUBCHEM_CACTVS_ROTATABLE_BOND>
2

> <PUBCHEM_CACTVS_SUBSKEYS>
AAADccB7oYAAAAAAAAAAAAAAAAAAAAAAAAA8WIAAAAAAAACx/AAAHwAQAAAADAjBHhQ98PLIEAC4BzZndACigCkxAiAJ2CA4ZJiIoOLA0dGEJAholQLIyC8QgMAOQAAAQAACAACAAACAAAQAAAAAAAAAAA==

> <PUBCHEM_IUPAC_OPENEYE_NAME>
1-(5-cyano-2-pyridyl)-3-[7-(trifluoromethyl)-4-quinolyl]urea

> <PUBCHEM_IUPAC_CAS_NAME>
1-(5-cyano-2-pyridinyl)-3-[7-(trifluoromethyl)-4-quinolinyl]urea

> <PUBCHEM_IUPAC_NAME_MARKUP>
1-(5-cyanopyridin-2-yl)-3-[7-(trifluoromethyl)quinolin-4-yl]urea

> <PUBCHEM_IUPAC_NAME>
1-(5-cyanopyridin-2-yl)-3-[7-(trifluoromethyl)quinolin-4-yl]urea

> <PUBCHEM_IUPAC_SYSTEMATIC_NAME>
1-(5-cyanopyridin-2-yl)-3-[7-(trifluoromethyl)quinolin-4-yl]urea

> <PUBCHEM_IUPAC_TRADITIONAL_NAME>
1-(5-cyano-2-pyridyl)-3-[7-(trifluoromethyl)-4-quinolyl]urea

> <PUBCHEM_IUPAC_INCHI>
InChI=1S/C17H10F3N5O/c18-17(19,20)11-2-3-12-13(5-6-22-14(12)7-11)24-16(26)25-15-4-1-10(8-21)9-23-15/h1-7,9H,(H2,22,23,24,25,26)

> <PUBCHEM_IUPAC_INCHIKEY>
QTTYXMRMIOCNGZ-UHFFFAOYSA-N

> <PUBCHEM_XLOGP3_AA>
2.6

> <PUBCHEM_EXACT_MASS>
357.08374445

> <PUBCHEM_MOLECULAR_FORMULA>
C17H10F3N5O

> <PUBCHEM_MOLECULAR_WEIGHT>
357.29

> <PUBCHEM_SMILES>
C1=CC2=C(C=CN=C2C=C1C(F)(F)F)NC(=O)NC3=NC=C(C=C3)C#N

> <PUBCHEM_OPENEYE_CAN_SMILES>
C1=CC2=C(C=CN=C2C=C1C(F)(F)F)NC(=O)NC3=NC=C(C=C3)C#N

> <PUBCHEM_OPENEYE_ISO_SMILES>
C1=CC2=C(C=CN=C2C=C1C(F)(F)F)NC(=O)NC3=NC=C(C=C3)C#N

> <PUBCHEM_CACTVS_TPSA>
90.7

> <PUBCHEM_MONOISOTOPIC_WEIGHT>
357.08374445

> <PUBCHEM_TOTAL_CHARGE>
0

> <PUBCHEM_HEAVY_ATOM_COUNT>
26

> <PUBCHEM_ATOM_DEF_STEREO_COUNT>
0

> <PUBCHEM_ATOM_UDEF_STEREO_COUNT>
0

> <PUBCHEM_BOND_DEF_STEREO_COUNT>
0

> <PUBCHEM_BOND_UDEF_STEREO_COUNT>
0

> <PUBCHEM_ISOTOPIC_ATOM_COUNT>
0

> <PUBCHEM_COMPONENT_COUNT>
1

> <PUBCHEM_CACTVS_TAUTO_COUNT>
-1

> <PUBCHEM_COORDINATE_TYPE>
1
5
255

> <PUBCHEM_BONDANNOTATIONS>
10  11  8
10  12  8
10  14  8
11  15  8
12  17  8
13  15  8
13  16  8
14  16  8
17  19  8
21  22  8
22  23  8
23  24  8
24  25  8
6  11  8
6  19  8
8  21  8
8  25  8

$$$$
