11710909
  -OEChem-03202506072D

 45 48  0     0  0  0  0  0  0999 V2000
    2.8660    5.6276    0.0000 Cl  0  0  0  0  0  0  0  0  0  0  0  0
    3.7320    1.1276    0.0000 O   0  0  0  0  0  0  0  0  0  0  0  0
    7.2764   -4.6771    0.0000 N   0  0  0  0  0  0  0  0  0  0  0  0
    7.8600   -3.8724    0.0000 N   0  0  0  0  0  0  0  0  0  0  0  0
    4.5981   -4.3724    0.0000 N   0  0  0  0  0  0  0  0  0  0  0  0
    7.5870   -2.1171    0.0000 N   0  0  0  0  0  0  0  0  0  0  0  0
    5.4641    1.1276    0.0000 N   0  0  0  0  0  0  0  0  0  0  0  0
    4.5981    2.6276    0.0000 N   0  0  0  0  0  0  0  0  0  0  0  0
    6.3301   -3.3724    0.0000 C   0  0  0  0  0  0  0  0  0  0  0  0
    5.4641   -2.8724    0.0000 C   0  0  0  0  0  0  0  0  0  0  0  0
    6.3301   -4.3724    0.0000 C   0  0  0  0  0  0  0  0  0  0  0  0
    5.4641   -1.8724    0.0000 C   0  0  0  0  0  0  0  0  0  0  0  0
    7.2764   -3.0676    0.0000 C   0  0  0  0  0  0  0  0  0  0  0  0
    4.5981   -3.3724    0.0000 C   0  0  0  0  0  0  0  0  0  0  0  0
    5.4641   -4.8724    0.0000 C   0  0  0  0  0  0  0  0  0  0  0  0
    4.5981   -1.3724    0.0000 C   0  0  0  0  0  0  0  0  0  0  0  0
    6.3301   -1.3724    0.0000 C   0  0  0  0  0  0  0  0  0  0  0  0
    7.5870   -5.6276    0.0000 C   0  0  0  0  0  0  0  0  0  0  0  0
    5.4641    0.1276    0.0000 C   0  0  0  0  0  0  0  0  0  0  0  0
    4.5981   -0.3724    0.0000 C   0  0  0  0  0  0  0  0  0  0  0  0
    6.3301   -0.3724    0.0000 C   0  0  0  0  0  0  0  0  0  0  0  0
    4.5981    1.6276    0.0000 C   0  0  0  0  0  0  0  0  0  0  0  0
    3.7320    3.1276    0.0000 C   0  0  0  0  0  0  0  0  0  0  0  0
    3.7320    4.1276    0.0000 C   0  0  0  0  0  0  0  0  0  0  0  0
    2.8660    2.6276    0.0000 C   0  0  0  0  0  0  0  0  0  0  0  0
    2.8660    4.6276    0.0000 C   0  0  0  0  0  0  0  0  0  0  0  0
    2.0000    3.1276    0.0000 C   0  0  0  0  0  0  0  0  0  0  0  0
    2.0000    4.1276    0.0000 C   0  0  0  0  0  0  0  0  0  0  0  0
    4.0611   -3.0624    0.0000 H   0  0  0  0  0  0  0  0  0  0  0  0
    5.4641   -5.4924    0.0000 H   0  0  0  0  0  0  0  0  0  0  0  0
    4.0611   -1.6824    0.0000 H   0  0  0  0  0  0  0  0  0  0  0  0
    6.8671   -1.6824    0.0000 H   0  0  0  0  0  0  0  0  0  0  0  0
    6.9977   -5.8202    0.0000 H   0  0  0  0  0  0  0  0  0  0  0  0
    7.7796   -6.2170    0.0000 H   0  0  0  0  0  0  0  0  0  0  0  0
    8.1763   -5.4350    0.0000 H   0  0  0  0  0  0  0  0  0  0  0  0
    4.0611   -0.0624    0.0000 H   0  0  0  0  0  0  0  0  0  0  0  0
    6.8671   -0.0624    0.0000 H   0  0  0  0  0  0  0  0  0  0  0  0
    8.1937   -1.9893    0.0000 H   0  0  0  0  0  0  0  0  0  0  0  0
    7.1730   -1.6556    0.0000 H   0  0  0  0  0  0  0  0  0  0  0  0
    6.0010    1.4376    0.0000 H   0  0  0  0  0  0  0  0  0  0  0  0
    5.1350    2.9376    0.0000 H   0  0  0  0  0  0  0  0  0  0  0  0
    4.2690    4.4376    0.0000 H   0  0  0  0  0  0  0  0  0  0  0  0
    2.8660    2.0076    0.0000 H   0  0  0  0  0  0  0  0  0  0  0  0
    1.4631    2.8176    0.0000 H   0  0  0  0  0  0  0  0  0  0  0  0
    1.4631    4.4376    0.0000 H   0  0  0  0  0  0  0  0  0  0  0  0
  1 26  1  0  0  0  0
  2 22  2  0  0  0  0
  3  4  1  0  0  0  0
  3 11  1  0  0  0  0
  3 18  1  0  0  0  0
  4 13  2  0  0  0  0
  5 14  1  0  0  0  0
  5 15  2  0  0  0  0
  6 13  1  0  0  0  0
  6 38  1  0  0  0  0
  6 39  1  0  0  0  0
  7 19  1  0  0  0  0
  7 22  1  0  0  0  0
  7 40  1  0  0  0  0
  8 22  1  0  0  0  0
  8 23  1  0  0  0  0
  8 41  1  0  0  0  0
  9 10  1  0  0  0  0
  9 11  2  0  0  0  0
  9 13  1  0  0  0  0
 10 12  1  0  0  0  0
 10 14  2  0  0  0  0
 11 15  1  0  0  0  0
 12 16  2  0  0  0  0
 12 17  1  0  0  0  0
 14 29  1  0  0  0  0
 15 30  1  0  0  0  0
 16 20  1  0  0  0  0
 16 31  1  0  0  0  0
 17 21  2  0  0  0  0
 17 32  1  0  0  0  0
 18 33  1  0  0  0  0
 18 34  1  0  0  0  0
 18 35  1  0  0  0  0
 19 20  2  0  0  0  0
 19 21  1  0  0  0  0
 20 36  1  0  0  0  0
 21 37  1  0  0  0  0
 23 24  2  0  0  0  0
 23 25  1  0  0  0  0
 24 26  1  0  0  0  0
 24 42  1  0  0  0  0
 25 27  2  0  0  0  0
 25 43  1  0  0  0  0
 26 28  2  0  0  0  0
 27 28  1  0  0  0  0
 27 44  1  0  0  0  0
 28 45  1  0  0  0  0
M  END
> <PUBCHEM_COMPOUND_CID>
11710909

> <PUBCHEM_COMPOUND_CANONICALIZED>
1

> <PUBCHEM_CACTVS_COMPLEXITY>
543

> <PUBCHEM_CACTVS_HBOND_ACCEPTOR>
4

> <PUBCHEM_CACTVS_HBOND_DONOR>
3

> <PUBCHEM_CACTVS_ROTATABLE_BOND>
3

> <PUBCHEM_CACTVS_SUBSKEYS>
AAADceB7oAAEAAAAAAAAAAAAAAAAAWAAAAA8YIAAAAAAAFgB/AAAHgIYAAAADArBHiQ/8PLIEACqAzZndACShCYxlyAc2CA4dpiIYGLB09GUpAh4nALIyCcQgMAOiAAAAAIAAAAQAAAABAAAAAAAAAAAAA==

> <PUBCHEM_IUPAC_OPENEYE_NAME>
1-[4-(3-amino-1-methyl-pyrazolo[3,4-c]pyridin-4-yl)phenyl]-3-(3-chlorophenyl)urea

> <PUBCHEM_IUPAC_CAS_NAME>
1-[4-(3-amino-1-methyl-4-pyrazolo[3,4-c]pyridinyl)phenyl]-3-(3-chlorophenyl)urea

> <PUBCHEM_IUPAC_NAME_MARKUP>
1-[4-(3-amino-1-methylpyrazolo[3,4-c]pyridin-4-yl)phenyl]-3-(3-chlorophenyl)urea

> <PUBCHEM_IUPAC_NAME>
1-[4-(3-amino-1-methylpyrazolo[3,4-c]pyridin-4-yl)phenyl]-3-(3-chlorophenyl)urea

> <PUBCHEM_IUPAC_SYSTEMATIC_NAME>
1-[4-(3-azanyl-1-methyl-pyrazolo[3,4-c]pyridin-4-yl)phenyl]-3-(3-chlorophenyl)urea

> <PUBCHEM_IUPAC_TRADITIONAL_NAME>
1-[4-(3-amino-1-methyl-pyrazolo[3,4-c]pyridin-4-yl)phenyl]-3-(3-chlorophenyl)urea

> <PUBCHEM_IUPAC_INCHI>
InChI=1S/C20H17ClN6O/c1-27-17-11-23-10-16(18(17)19(22)26-27)12-5-7-14(8-6-12)24-20(28)25-15-4-2-3-13(21)9-15/h2-11H,1H3,(H2,22,26)(H2,24,25,28)

> <PUBCHEM_IUPAC_INCHIKEY>
UUVMNPKFPGJBNX-UHFFFAOYSA-N

> <PUBCHEM_XLOGP3_AA>
3

> <PUBCHEM_EXACT_MASS>
392.1152369

> <PUBCHEM_MOLECULAR_FORMULA>
C20H17ClN6O

> <PUBCHEM_MOLECULAR_WEIGHT>
392.8

> <PUBCHEM_SMILES>
CN1C2=C(C(=CN=C2)C3=CC=C(C=C3)NC(=O)NC4=CC(=CC=C4)Cl)C(=N1)N

> <PUBCHEM_OPENEYE_CAN_SMILES>
CN1C2=C(C(=CN=C2)C3=CC=C(C=C3)NC(=O)NC4=CC(=CC=C4)Cl)C(=N1)N

> <PUBCHEM_OPENEYE_ISO_SMILES>
CN1C2=C(C(=CN=C2)C3=CC=C(C=C3)NC(=O)NC4=CC(=CC=C4)Cl)C(=N1)N

> <PUBCHEM_CACTVS_TPSA>
97.9

> <PUBCHEM_MONOISOTOPIC_WEIGHT>
392.1152369

> <PUBCHEM_TOTAL_CHARGE>
0

> <PUBCHEM_HEAVY_ATOM_COUNT>
28

> <PUBCHEM_ATOM_DEF_STEREO_COUNT>
0

> <PUBCHEM_ATOM_UDEF_STEREO_COUNT>
0

> <PUBCHEM_BOND_DEF_STEREO_COUNT>
0

> <PUBCHEM_BOND_UDEF_STEREO_COUNT>
0

> <PUBCHEM_ISOTOPIC_ATOM_COUNT>
0

> <PUBCHEM_COMPONENT_COUNT>
1

> <PUBCHEM_CACTVS_TAUTO_COUNT>
-1

> <PUBCHEM_COORDINATE_TYPE>
1
5
255

> <PUBCHEM_BONDANNOTATIONS>
10  14  8
11  15  8
12  16  8
12  17  8
16  20  8
17  21  8
19  20  8
19  21  8
23  24  8
23  25  8
24  26  8
25  27  8
26  28  8
27  28  8
3  11  8
3  4  8
4  13  8
5  14  8
5  15  8
9  10  8
9  11  8
9  13  8

$$$$
