3453573
  -OEChem-03202500572D

 44 47  0     1  0  0  0  0  0999 V2000
    7.5320    1.3100    0.0000 F   0  0  0  0  0  0  0  0  0  0  0  0
    3.9176    0.8446    0.0000 O   0  0  0  0  0  0  0  0  0  0  0  0
    5.6660   -2.1900    0.0000 N   0  0  0  0  0  0  0  0  0  0  0  0
    7.4783   -1.9947    0.0000 N   0  0  0  0  0  0  0  0  0  0  0  0
    8.0619   -1.1900    0.0000 N   0  0  0  0  0  0  0  0  0  0  0  0
    3.0000   -1.7108    0.0000 C   0  0  0  0  0  0  0  0  0  0  0  0
    3.9061   -2.2247    0.0000 C   0  0  0  0  0  0  0  0  0  0  0  0
    3.0000   -0.6692    0.0000 C   0  0  0  0  0  0  0  0  0  0  0  0
    4.8000   -0.6900    0.0000 C   0  0  0  0  0  0  0  0  0  0  0  0
    4.8000   -1.6900    0.0000 C   0  0  0  0  0  0  0  0  0  0  0  0
    5.6660   -0.1900    0.0000 C   0  0  3  0  0  0  0  0  0  0  0  0
    3.9061   -0.1553    0.0000 C   0  0  0  0  0  0  0  0  0  0  0  0
    6.5320   -0.6900    0.0000 C   0  0  0  0  0  0  0  0  0  0  0  0
    2.0000   -1.7147    0.0000 C   0  0  0  0  0  0  0  0  0  0  0  0
    2.5033   -2.5788    0.0000 C   0  0  0  0  0  0  0  0  0  0  0  0
    6.5320   -1.6900    0.0000 C   0  0  0  0  0  0  0  0  0  0  0  0
    5.6660    0.8100    0.0000 C   0  0  0  0  0  0  0  0  0  0  0  0
    7.4783   -0.3853    0.0000 C   0  0  0  0  0  0  0  0  0  0  0  0
    6.5320    1.3100    0.0000 C   0  0  0  0  0  0  0  0  0  0  0  0
    4.8000    1.3100    0.0000 C   0  0  0  0  0  0  0  0  0  0  0  0
    8.2226    0.2826    0.0000 C   0  0  0  0  0  0  0  0  0  0  0  0
    6.5320    2.3100    0.0000 C   0  0  0  0  0  0  0  0  0  0  0  0
    4.8000    2.3100    0.0000 C   0  0  0  0  0  0  0  0  0  0  0  0
    5.6660    2.8100    0.0000 C   0  0  0  0  0  0  0  0  0  0  0  0
    3.5124   -2.7037    0.0000 H   0  0  0  0  0  0  0  0  0  0  0  0
    4.3107   -2.6944    0.0000 H   0  0  0  0  0  0  0  0  0  0  0  0
    2.7909   -0.0855    0.0000 H   0  0  0  0  0  0  0  0  0  0  0  0
    2.3891   -0.7753    0.0000 H   0  0  0  0  0  0  0  0  0  0  0  0
    5.1291    0.1200    0.0000 H   0  0  0  0  0  0  0  0  0  0  0  0
    1.9976   -1.0947    0.0000 H   0  0  0  0  0  0  0  0  0  0  0  0
    1.3800   -1.7171    0.0000 H   0  0  0  0  0  0  0  0  0  0  0  0
    2.0024   -2.3347    0.0000 H   0  0  0  0  0  0  0  0  0  0  0  0
    1.9652   -2.2708    0.0000 H   0  0  0  0  0  0  0  0  0  0  0  0
    2.1954   -3.1169    0.0000 H   0  0  0  0  0  0  0  0  0  0  0  0
    3.0415   -2.8867    0.0000 H   0  0  0  0  0  0  0  0  0  0  0  0
    5.6660   -2.8100    0.0000 H   0  0  0  0  0  0  0  0  0  0  0  0
    8.6819   -1.1900    0.0000 H   0  0  0  0  0  0  0  0  0  0  0  0
    4.2631    1.0000    0.0000 H   0  0  0  0  0  0  0  0  0  0  0  0
    8.6366   -0.1789    0.0000 H   0  0  0  0  0  0  0  0  0  0  0  0
    8.6840    0.6966    0.0000 H   0  0  0  0  0  0  0  0  0  0  0  0
    7.8085    0.7440    0.0000 H   0  0  0  0  0  0  0  0  0  0  0  0
    7.0690    2.6200    0.0000 H   0  0  0  0  0  0  0  0  0  0  0  0
    4.2631    2.6200    0.0000 H   0  0  0  0  0  0  0  0  0  0  0  0
    5.6660    3.4300    0.0000 H   0  0  0  0  0  0  0  0  0  0  0  0
  1 19  1  0  0  0  0
  2 12  2  0  0  0  0
  3 10  1  0  0  0  0
  3 16  1  0  0  0  0
  3 36  1  0  0  0  0
  4  5  1  0  0  0  0
  4 16  2  0  0  0  0
  5 18  1  0  0  0  0
  5 37  1  0  0  0  0
  6  7  1  0  0  0  0
  6  8  1  0  0  0  0
  6 14  1  0  0  0  0
  6 15  1  0  0  0  0
  7 10  1  0  0  0  0
  7 25  1  0  0  0  0
  7 26  1  0  0  0  0
  8 12  1  0  0  0  0
  8 27  1  0  0  0  0
  8 28  1  0  0  0  0
  9 10  2  0  0  0  0
  9 11  1  0  0  0  0
  9 12  1  0  0  0  0
 11 13  1  0  0  0  0
 11 17  1  0  0  0  0
 11 29  1  0  0  0  0
 13 16  1  0  0  0  0
 13 18  2  0  0  0  0
 14 30  1  0  0  0  0
 14 31  1  0  0  0  0
 14 32  1  0  0  0  0
 15 33  1  0  0  0  0
 15 34  1  0  0  0  0
 15 35  1  0  0  0  0
 17 19  1  0  0  0  0
 17 20  2  0  0  0  0
 18 21  1  0  0  0  0
 19 22  2  0  0  0  0
 20 23  1  0  0  0  0
 20 38  1  0  0  0  0
 21 39  1  0  0  0  0
 21 40  1  0  0  0  0
 21 41  1  0  0  0  0
 22 24  1  0  0  0  0
 22 42  1  0  0  0  0
 23 24  2  0  0  0  0
 23 43  1  0  0  0  0
 24 44  1  0  0  0  0
M  END
> <PUBCHEM_COMPOUND_CID>
3453573

> <PUBCHEM_COMPOUND_CANONICALIZED>
1

> <PUBCHEM_CACTVS_COMPLEXITY>
573

> <PUBCHEM_CACTVS_HBOND_ACCEPTOR>
4

> <PUBCHEM_CACTVS_HBOND_DONOR>
2

> <PUBCHEM_CACTVS_ROTATABLE_BOND>
1

> <PUBCHEM_CACTVS_SUBSKEYS>
AAADceB7IQAAAAAAAAAAAAAAAAAAAWAAAAAwQIAAAAAAAECxwAAAHwAYAAAADwyBnggzsJLjAACqA6ZyYACSBAIhAAAduSEwRNiIIDLA2dCEpAhwmALIyUcYicCfgAAAAAAAAAAAAAAAAAAAAAAAAAAAAA==

> <PUBCHEM_IUPAC_OPENEYE_NAME>
4-(2-fluorophenyl)-3,7,7-trimethyl-4,6,8,9-tetrahydro-2H-pyrazolo[3,4-b]quinolin-5-one

> <PUBCHEM_IUPAC_CAS_NAME>
4-(2-fluorophenyl)-3,7,7-trimethyl-4,6,8,9-tetrahydro-2H-pyrazolo[3,4-b]quinolin-5-one

> <PUBCHEM_IUPAC_NAME_MARKUP>
4-(2-fluorophenyl)-3,7,7-trimethyl-4,6,8,9-tetrahydro-2<I>H</I>-pyrazolo[3,4-b]quinolin-5-one

> <PUBCHEM_IUPAC_NAME>
4-(2-fluorophenyl)-3,7,7-trimethyl-4,6,8,9-tetrahydro-2H-pyrazolo[3,4-b]quinolin-5-one

> <PUBCHEM_IUPAC_SYSTEMATIC_NAME>
4-(2-fluorophenyl)-3,7,7-trimethyl-4,6,8,9-tetrahydro-2H-pyrazolo[3,4-b]quinolin-5-one

> <PUBCHEM_IUPAC_TRADITIONAL_NAME>
4-(2-fluorophenyl)-3,7,7-trimethyl-4,6,8,9-tetrahydro-2H-pyrazolo[3,4-b]quinolin-5-one

> <PUBCHEM_IUPAC_INCHI>
InChI=1S/C19H20FN3O/c1-10-15-16(11-6-4-5-7-12(11)20)17-13(21-18(15)23-22-10)8-19(2,3)9-14(17)24/h4-7,16H,8-9H2,1-3H3,(H2,21,22,23)

> <PUBCHEM_IUPAC_INCHIKEY>
WYBRFXSHAXWYIZ-UHFFFAOYSA-N

> <PUBCHEM_XLOGP3_AA>
3.6

> <PUBCHEM_EXACT_MASS>
325.15904043

> <PUBCHEM_MOLECULAR_FORMULA>
C19H20FN3O

> <PUBCHEM_MOLECULAR_WEIGHT>
325.4

> <PUBCHEM_SMILES>
CC1=C2C(C3=C(CC(CC3=O)(C)C)NC2=NN1)C4=CC=CC=C4F

> <PUBCHEM_OPENEYE_CAN_SMILES>
CC1=C2C(C3=C(CC(CC3=O)(C)C)NC2=NN1)C4=CC=CC=C4F

> <PUBCHEM_OPENEYE_ISO_SMILES>
CC1=C2C(C3=C(CC(CC3=O)(C)C)NC2=NN1)C4=CC=CC=C4F

> <PUBCHEM_CACTVS_TPSA>
57.8

> <PUBCHEM_MONOISOTOPIC_WEIGHT>
325.15904043

> <PUBCHEM_TOTAL_CHARGE>
0

> <PUBCHEM_HEAVY_ATOM_COUNT>
24

> <PUBCHEM_ATOM_DEF_STEREO_COUNT>
0

> <PUBCHEM_ATOM_UDEF_STEREO_COUNT>
1

> <PUBCHEM_BOND_DEF_STEREO_COUNT>
0

> <PUBCHEM_BOND_UDEF_STEREO_COUNT>
0

> <PUBCHEM_ISOTOPIC_ATOM_COUNT>
0

> <PUBCHEM_COMPONENT_COUNT>
1

> <PUBCHEM_CACTVS_TAUTO_COUNT>
-1

> <PUBCHEM_COORDINATE_TYPE>
1
5
255

> <PUBCHEM_BONDANNOTATIONS>
11  17  3
13  16  8
13  18  8
17  19  8
17  20  8
19  22  8
20  23  8
22  24  8
23  24  8
4  16  8
4  5  8
5  18  8

$$$$
