49830613
  -OEChem-03202503492D

 56 59  0     0  0  0  0  0  0999 V2000
    7.1279   -4.7548    0.0000 F   0  0  0  0  0  0  0  0  0  0  0  0
   10.1279   -3.0227    0.0000 F   0  0  0  0  0  0  0  0  0  0  0  0
    4.1156    4.5613    0.0000 O   0  0  0  0  0  0  0  0  0  0  0  0
    4.8299    1.1716    0.0000 N   0  0  0  0  0  0  0  0  0  0  0  0
    4.5981   -2.5227    0.0000 N   0  0  0  0  0  0  0  0  0  0  0  0
    5.5443   -3.8275    0.0000 N   0  0  0  0  0  0  0  0  0  0  0  0
    5.1871   -0.5232    0.0000 N   0  0  0  0  0  0  0  0  0  0  0  0
    6.4763    0.6335    0.0000 N   0  0  0  0  0  0  0  0  0  0  0  0
    2.8660   -3.5227    0.0000 N   0  0  0  0  0  0  0  0  0  0  0  0
    4.4727    2.8664    0.0000 C   0  0  0  0  0  0  0  0  0  0  0  0
    5.1406    2.1222    0.0000 C   0  0  0  0  0  0  0  0  0  0  0  0
    3.8049    3.6108    0.0000 C   0  0  0  0  0  0  0  0  0  0  0  0
    5.2171    3.5343    0.0000 C   0  0  0  0  0  0  0  0  0  0  0  0
    3.7284    2.1986    0.0000 C   0  0  0  0  0  0  0  0  0  0  0  0
    5.5443   -2.2180    0.0000 C   0  0  0  0  0  0  0  0  0  0  0  0
    5.4978    0.4273    0.0000 C   0  0  0  0  0  0  0  0  0  0  0  0
    6.1279   -3.0227    0.0000 C   0  0  0  0  0  0  0  0  0  0  0  0
    4.5981   -3.5227    0.0000 C   0  0  0  0  0  0  0  0  0  0  0  0
    5.8550   -1.2675    0.0000 C   0  0  0  0  0  0  0  0  0  0  0  0
    3.7320   -2.0227    0.0000 C   0  0  0  0  0  0  0  0  0  0  0  0
    3.7320   -4.0227    0.0000 C   0  0  0  0  0  0  0  0  0  0  0  0
    7.1279   -3.0227    0.0000 C   0  0  0  0  0  0  0  0  0  0  0  0
    2.8660   -2.5227    0.0000 C   0  0  0  0  0  0  0  0  0  0  0  0
    6.8335   -1.0613    0.0000 C   0  0  0  0  0  0  0  0  0  0  0  0
    7.1441   -0.1108    0.0000 C   0  0  0  0  0  0  0  0  0  0  0  0
    3.7320   -5.0227    0.0000 C   0  0  0  0  0  0  0  0  0  0  0  0
    7.6279   -3.8888    0.0000 C   0  0  0  0  0  0  0  0  0  0  0  0
    7.6279   -2.1567    0.0000 C   0  0  0  0  0  0  0  0  0  0  0  0
    2.0000   -2.0227    0.0000 C   0  0  0  0  0  0  0  0  0  0  0  0
    8.6279   -3.8888    0.0000 C   0  0  0  0  0  0  0  0  0  0  0  0
    8.6279   -2.1567    0.0000 C   0  0  0  0  0  0  0  0  0  0  0  0
    9.1279   -3.0227    0.0000 C   0  0  0  0  0  0  0  0  0  0  0  0
    5.6875    1.8301    0.0000 H   0  0  0  0  0  0  0  0  0  0  0  0
    5.5232    2.6101    0.0000 H   0  0  0  0  0  0  0  0  0  0  0  0
    3.2580    3.9028    0.0000 H   0  0  0  0  0  0  0  0  0  0  0  0
    3.4224    3.1228    0.0000 H   0  0  0  0  0  0  0  0  0  0  0  0
    5.6311    3.0728    0.0000 H   0  0  0  0  0  0  0  0  0  0  0  0
    5.6785    3.9484    0.0000 H   0  0  0  0  0  0  0  0  0  0  0  0
    4.8030    3.9958    0.0000 H   0  0  0  0  0  0  0  0  0  0  0  0
    3.3144    2.6601    0.0000 H   0  0  0  0  0  0  0  0  0  0  0  0
    3.2670    1.7846    0.0000 H   0  0  0  0  0  0  0  0  0  0  0  0
    4.1425    1.7371    0.0000 H   0  0  0  0  0  0  0  0  0  0  0  0
    4.2233    1.0438    0.0000 H   0  0  0  0  0  0  0  0  0  0  0  0
    3.7015    5.0227    0.0000 H   0  0  0  0  0  0  0  0  0  0  0  0
    3.7320   -1.4027    0.0000 H   0  0  0  0  0  0  0  0  0  0  0  0
    7.2475   -1.5227    0.0000 H   0  0  0  0  0  0  0  0  0  0  0  0
    7.7508    0.0171    0.0000 H   0  0  0  0  0  0  0  0  0  0  0  0
    3.1120   -5.0227    0.0000 H   0  0  0  0  0  0  0  0  0  0  0  0
    3.7320   -5.6427    0.0000 H   0  0  0  0  0  0  0  0  0  0  0  0
    4.3520   -5.0227    0.0000 H   0  0  0  0  0  0  0  0  0  0  0  0
    7.3179   -1.6198    0.0000 H   0  0  0  0  0  0  0  0  0  0  0  0
    2.3100   -1.4858    0.0000 H   0  0  0  0  0  0  0  0  0  0  0  0
    1.4631   -1.7127    0.0000 H   0  0  0  0  0  0  0  0  0  0  0  0
    1.6900   -2.5597    0.0000 H   0  0  0  0  0  0  0  0  0  0  0  0
    8.9379   -4.4257    0.0000 H   0  0  0  0  0  0  0  0  0  0  0  0
    8.9379   -1.6198    0.0000 H   0  0  0  0  0  0  0  0  0  0  0  0
  1 27  1  0  0  0  0
  2 32  1  0  0  0  0
  3 12  1  0  0  0  0
  3 44  1  0  0  0  0
  4 11  1  0  0  0  0
  4 16  1  0  0  0  0
  4 43  1  0  0  0  0
  5 15  1  0  0  0  0
  5 18  1  0  0  0  0
  5 20  1  0  0  0  0
  6 17  1  0  0  0  0
  6 18  2  0  0  0  0
  7 16  1  0  0  0  0
  7 19  2  0  0  0  0
  8 16  2  0  0  0  0
  8 25  1  0  0  0  0
  9 21  2  0  0  0  0
  9 23  1  0  0  0  0
 10 11  1  0  0  0  0
 10 12  1  0  0  0  0
 10 13  1  0  0  0  0
 10 14  1  0  0  0  0
 11 33  1  0  0  0  0
 11 34  1  0  0  0  0
 12 35  1  0  0  0  0
 12 36  1  0  0  0  0
 13 37  1  0  0  0  0
 13 38  1  0  0  0  0
 13 39  1  0  0  0  0
 14 40  1  0  0  0  0
 14 41  1  0  0  0  0
 14 42  1  0  0  0  0
 15 17  2  0  0  0  0
 15 19  1  0  0  0  0
 17 22  1  0  0  0  0
 18 21  1  0  0  0  0
 19 24  1  0  0  0  0
 20 23  2  0  0  0  0
 20 45  1  0  0  0  0
 21 26  1  0  0  0  0
 22 27  2  0  0  0  0
 22 28  1  0  0  0  0
 23 29  1  0  0  0  0
 24 25  2  0  0  0  0
 24 46  1  0  0  0  0
 25 47  1  0  0  0  0
 26 48  1  0  0  0  0
 26 49  1  0  0  0  0
 26 50  1  0  0  0  0
 27 30  1  0  0  0  0
 28 31  2  0  0  0  0
 28 51  1  0  0  0  0
 29 52  1  0  0  0  0
 29 53  1  0  0  0  0
 29 54  1  0  0  0  0
 30 32  2  0  0  0  0
 30 55  1  0  0  0  0
 31 32  1  0  0  0  0
 31 56  1  0  0  0  0
M  END
> <PUBCHEM_COMPOUND_CID>
49830613

> <PUBCHEM_COMPOUND_CANONICALIZED>
1

> <PUBCHEM_CACTVS_COMPLEXITY>
627

> <PUBCHEM_CACTVS_HBOND_ACCEPTOR>
8

> <PUBCHEM_CACTVS_HBOND_DONOR>
2

> <PUBCHEM_CACTVS_ROTATABLE_BOND>
6

> <PUBCHEM_CACTVS_SUBSKEYS>
AAADceB7oYAAAAAAAAAAAAAAAAAAAWAAAAA8WIAAAAAAAFgB/AAAHwAQCAAADgjhnw4/sJ/MGgCgAzZnZACCgC0xEqAJ2KA4dJiIeOLA2dGUZAhqgALIyCcQgMAOAAAAAAAAAAAAAAAAAAAAAAAAAAAAAA==

> <PUBCHEM_IUPAC_OPENEYE_NAME>
3-[[4-[2-(2,4-difluorophenyl)-6,8-dimethyl-imidazo[1,2-a]pyrazin-3-yl]pyrimidin-2-yl]amino]-2,2-dimethyl-propan-1-ol

> <PUBCHEM_IUPAC_CAS_NAME>
3-[[4-[2-(2,4-difluorophenyl)-6,8-dimethyl-3-imidazo[1,2-a]pyrazinyl]-2-pyrimidinyl]amino]-2,2-dimethyl-1-propanol

> <PUBCHEM_IUPAC_NAME_MARKUP>
3-[[4-[2-(2,4-difluorophenyl)-6,8-dimethylimidazo[1,2-a]pyrazin-3-yl]pyrimidin-2-yl]amino]-2,2-dimethylpropan-1-ol

> <PUBCHEM_IUPAC_NAME>
3-[[4-[2-(2,4-difluorophenyl)-6,8-dimethylimidazo[1,2-a]pyrazin-3-yl]pyrimidin-2-yl]amino]-2,2-dimethylpropan-1-ol

> <PUBCHEM_IUPAC_SYSTEMATIC_NAME>
3-[[4-[2-[2,4-bis(fluoranyl)phenyl]-6,8-dimethyl-imidazo[1,2-a]pyrazin-3-yl]pyrimidin-2-yl]amino]-2,2-dimethyl-propan-1-ol

> <PUBCHEM_IUPAC_TRADITIONAL_NAME>
3-[[4-[2-(2,4-difluorophenyl)-6,8-dimethyl-imidazo[1,2-a]pyrazin-3-yl]pyrimidin-2-yl]amino]-2,2-dimethyl-propan-1-ol

> <PUBCHEM_IUPAC_INCHI>
InChI=1S/C23H24F2N6O/c1-13-10-31-20(18-7-8-26-22(29-18)27-11-23(3,4)12-32)19(30-21(31)14(2)28-13)16-6-5-15(24)9-17(16)25/h5-10,32H,11-12H2,1-4H3,(H,26,27,29)

> <PUBCHEM_IUPAC_INCHIKEY>
WIHAOLDOGQOGIU-UHFFFAOYSA-N

> <PUBCHEM_XLOGP3_AA>
4.7

> <PUBCHEM_EXACT_MASS>
438.19796573

> <PUBCHEM_MOLECULAR_FORMULA>
C23H24F2N6O

> <PUBCHEM_MOLECULAR_WEIGHT>
438.5

> <PUBCHEM_SMILES>
CC1=CN2C(=C(N=C2C(=N1)C)C3=C(C=C(C=C3)F)F)C4=NC(=NC=C4)NCC(C)(C)CO

> <PUBCHEM_OPENEYE_CAN_SMILES>
CC1=CN2C(=C(N=C2C(=N1)C)C3=C(C=C(C=C3)F)F)C4=NC(=NC=C4)NCC(C)(C)CO

> <PUBCHEM_OPENEYE_ISO_SMILES>
CC1=CN2C(=C(N=C2C(=N1)C)C3=C(C=C(C=C3)F)F)C4=NC(=NC=C4)NCC(C)(C)CO

> <PUBCHEM_CACTVS_TPSA>
88.2

> <PUBCHEM_MONOISOTOPIC_WEIGHT>
438.19796573

> <PUBCHEM_TOTAL_CHARGE>
0

> <PUBCHEM_HEAVY_ATOM_COUNT>
32

> <PUBCHEM_ATOM_DEF_STEREO_COUNT>
0

> <PUBCHEM_ATOM_UDEF_STEREO_COUNT>
0

> <PUBCHEM_BOND_DEF_STEREO_COUNT>
0

> <PUBCHEM_BOND_UDEF_STEREO_COUNT>
0

> <PUBCHEM_ISOTOPIC_ATOM_COUNT>
0

> <PUBCHEM_COMPONENT_COUNT>
1

> <PUBCHEM_CACTVS_TAUTO_COUNT>
-1

> <PUBCHEM_COORDINATE_TYPE>
1
5
255

> <PUBCHEM_BONDANNOTATIONS>
15  17  8
18  21  8
19  24  8
20  23  8
22  27  8
22  28  8
24  25  8
27  30  8
28  31  8
30  32  8
31  32  8
5  15  8
5  18  8
5  20  8
6  17  8
6  18  8
7  16  8
7  19  8
8  16  8
8  25  8
9  21  8
9  23  8

$$$$
