71300299
  -OEChem-03202504532D

 54 57  0     1  0  0  0  0  0999 V2000
    7.5011   -2.9679    0.0000 S   0  0  0  0  0  0  0  0  0  0  0  0
    3.1235    2.6254    0.0000 N   0  0  3  0  0  0  0  0  0  0  0  0
    3.6235    4.8160    0.0000 N   0  0  0  0  0  0  0  0  0  0  0  0
    4.8555   -0.3746    0.0000 N   0  0  0  0  0  0  0  0  0  0  0  0
    5.7216   -1.8746    0.0000 N   0  0  0  0  0  0  0  0  0  0  0  0
    3.9895   -1.8746    0.0000 N   0  0  0  0  0  0  0  0  0  0  0  0
    7.6703   -4.5771    0.0000 N   0  0  0  0  0  0  0  0  0  0  0  0
    9.1648   -3.6065    0.0000 N   0  0  0  0  0  0  0  0  0  0  0  0
    4.8555   -5.3746    0.0000 N   0  0  0  0  0  0  0  0  0  0  0  0
    2.2225    3.0593    0.0000 C   0  0  0  0  0  0  0  0  0  0  0  0
    2.0000    4.0342    0.0000 C   0  0  0  0  0  0  0  0  0  0  0  0
    4.0245    3.0593    0.0000 C   0  0  0  0  0  0  0  0  0  0  0  0
    2.6235    4.8160    0.0000 C   0  0  0  0  0  0  0  0  0  0  0  0
    4.2470    4.0342    0.0000 C   0  0  0  0  0  0  0  0  0  0  0  0
    3.1235    1.6254    0.0000 C   0  0  0  0  0  0  0  0  0  0  0  0
    3.9895    1.1254    0.0000 C   0  0  0  0  0  0  0  0  0  0  0  0
    2.2575    1.1254    0.0000 C   0  0  0  0  0  0  0  0  0  0  0  0
    3.9895    0.1254    0.0000 C   0  0  0  0  0  0  0  0  0  0  0  0
    2.2575    0.1254    0.0000 C   0  0  0  0  0  0  0  0  0  0  0  0
    3.1235   -0.3746    0.0000 C   0  0  0  0  0  0  0  0  0  0  0  0
    4.8555   -1.3746    0.0000 C   0  0  0  0  0  0  0  0  0  0  0  0
    5.7216   -2.8746    0.0000 C   0  0  0  0  0  0  0  0  0  0  0  0
    6.5876   -3.3746    0.0000 C   0  0  0  0  0  0  0  0  0  0  0  0
    6.6921   -4.3691    0.0000 C   0  0  0  0  0  0  0  0  0  0  0  0
    4.8555   -3.3746    0.0000 C   0  0  0  0  0  0  0  0  0  0  0  0
    3.9895   -2.8746    0.0000 C   0  0  0  0  0  0  0  0  0  0  0  0
    8.1703   -3.7110    0.0000 C   0  0  0  0  0  0  0  0  0  0  0  0
    5.9490   -5.0383    0.0000 C   0  0  0  0  0  0  0  0  0  0  0  0
    4.8555   -4.3746    0.0000 C   0  0  0  0  0  0  0  0  0  0  0  0
    9.7526   -4.4155    0.0000 C   0  0  0  0  0  0  0  0  0  0  0  0
    1.6025    3.0593    0.0000 H   0  0  0  0  0  0  0  0  0  0  0  0
    2.0846    2.4548    0.0000 H   0  0  0  0  0  0  0  0  0  0  0  0
    1.6134    4.5189    0.0000 H   0  0  0  0  0  0  0  0  0  0  0  0
    1.4414    3.7652    0.0000 H   0  0  0  0  0  0  0  0  0  0  0  0
    4.1624    2.4548    0.0000 H   0  0  0  0  0  0  0  0  0  0  0  0
    4.6445    3.0593    0.0000 H   0  0  0  0  0  0  0  0  0  0  0  0
    2.7614    5.4205    0.0000 H   0  0  0  0  0  0  0  0  0  0  0  0
    2.0649    5.0850    0.0000 H   0  0  0  0  0  0  0  0  0  0  0  0
    4.8056    3.7652    0.0000 H   0  0  0  0  0  0  0  0  0  0  0  0
    4.6335    4.5189    0.0000 H   0  0  0  0  0  0  0  0  0  0  0  0
    3.8925    5.3746    0.0000 H   0  0  0  0  0  0  0  0  0  0  0  0
    4.5264    1.4354    0.0000 H   0  0  0  0  0  0  0  0  0  0  0  0
    1.7205    1.4354    0.0000 H   0  0  0  0  0  0  0  0  0  0  0  0
    1.7205   -0.1846    0.0000 H   0  0  0  0  0  0  0  0  0  0  0  0
    3.1235   -0.9946    0.0000 H   0  0  0  0  0  0  0  0  0  0  0  0
    5.3925   -0.0646    0.0000 H   0  0  0  0  0  0  0  0  0  0  0  0
    3.4526   -3.1846    0.0000 H   0  0  0  0  0  0  0  0  0  0  0  0
    5.5341   -4.5775    0.0000 H   0  0  0  0  0  0  0  0  0  0  0  0
    5.4882   -5.4531    0.0000 H   0  0  0  0  0  0  0  0  0  0  0  0
    6.3638   -5.4990    0.0000 H   0  0  0  0  0  0  0  0  0  0  0  0
    9.4170   -3.0401    0.0000 H   0  0  0  0  0  0  0  0  0  0  0  0
    9.2510   -4.7800    0.0000 H   0  0  0  0  0  0  0  0  0  0  0  0
   10.1170   -4.9171    0.0000 H   0  0  0  0  0  0  0  0  0  0  0  0
   10.2542   -4.0511    0.0000 H   0  0  0  0  0  0  0  0  0  0  0  0
  1 23  1  0  0  0  0
  1 27  1  0  0  0  0
  2 10  1  0  0  0  0
  2 12  1  0  0  0  0
  2 15  1  0  0  0  0
  3 13  1  0  0  0  0
  3 14  1  0  0  0  0
  3 41  1  0  0  0  0
  4 18  1  0  0  0  0
  4 21  1  0  0  0  0
  4 46  1  0  0  0  0
  5 21  1  0  0  0  0
  5 22  2  0  0  0  0
  6 21  2  0  0  0  0
  6 26  1  0  0  0  0
  7 24  1  0  0  0  0
  7 27  2  0  0  0  0
  8 27  1  0  0  0  0
  8 30  1  0  0  0  0
  8 51  1  0  0  0  0
  9 29  3  0  0  0  0
 10 11  1  0  0  0  0
 10 31  1  0  0  0  0
 10 32  1  0  0  0  0
 11 13  1  0  0  0  0
 11 33  1  0  0  0  0
 11 34  1  0  0  0  0
 12 14  1  0  0  0  0
 12 35  1  0  0  0  0
 12 36  1  0  0  0  0
 13 37  1  0  0  0  0
 13 38  1  0  0  0  0
 14 39  1  0  0  0  0
 14 40  1  0  0  0  0
 15 16  1  0  0  0  0
 15 17  2  0  0  0  0
 16 18  2  0  0  0  0
 16 42  1  0  0  0  0
 17 19  1  0  0  0  0
 17 43  1  0  0  0  0
 18 20  1  0  0  0  0
 19 20  2  0  0  0  0
 19 44  1  0  0  0  0
 20 45  1  0  0  0  0
 22 23  1  0  0  0  0
 22 25  1  0  0  0  0
 23 24  2  0  0  0  0
 24 28  1  0  0  0  0
 25 26  2  0  0  0  0
 25 29  1  0  0  0  0
 26 47  1  0  0  0  0
 28 48  1  0  0  0  0
 28 49  1  0  0  0  0
 28 50  1  0  0  0  0
 30 52  1  0  0  0  0
 30 53  1  0  0  0  0
 30 54  1  0  0  0  0
M  END
> <PUBCHEM_COMPOUND_CID>
71300299

> <PUBCHEM_COMPOUND_CANONICALIZED>
1

> <PUBCHEM_CACTVS_COMPLEXITY>
597

> <PUBCHEM_CACTVS_HBOND_ACCEPTOR>
9

> <PUBCHEM_CACTVS_HBOND_DONOR>
3

> <PUBCHEM_CACTVS_ROTATABLE_BOND>
5

> <PUBCHEM_CACTVS_SUBSKEYS>
AAADceB7wABAAAAAAAAAAAAAAAAAAWAAAAA8QAAABYAAAAAB8AAAHAQQAAAADAjBXgQ/0ZfIEAi0BzRnZACi8KlxCrkJ2LQ4ZJiI6KLg2dGUJAhokALIyC8QAAAMAAAAAAQAAAAAAAAACAAAAAAAAAAAAA==

> <PUBCHEM_IUPAC_OPENEYE_NAME>
2-[3-(1,4-diazepan-1-yl)anilino]-4-[4-methyl-2-(methylamino)thiazol-5-yl]pyrimidine-5-carbonitrile

> <PUBCHEM_IUPAC_CAS_NAME>
2-[3-(1,4-diazepan-1-yl)anilino]-4-[4-methyl-2-(methylamino)-5-thiazolyl]-5-pyrimidinecarbonitrile

> <PUBCHEM_IUPAC_NAME_MARKUP>
2-[3-(1,4-diazepan-1-yl)anilino]-4-[4-methyl-2-(methylamino)-1,3-thiazol-5-yl]pyrimidine-5-carbonitrile

> <PUBCHEM_IUPAC_NAME>
2-[3-(1,4-diazepan-1-yl)anilino]-4-[4-methyl-2-(methylamino)-1,3-thiazol-5-yl]pyrimidine-5-carbonitrile

> <PUBCHEM_IUPAC_SYSTEMATIC_NAME>
2-[[3-(1,4-diazepan-1-yl)phenyl]amino]-4-[4-methyl-2-(methylamino)-1,3-thiazol-5-yl]pyrimidine-5-carbonitrile

> <PUBCHEM_IUPAC_TRADITIONAL_NAME>
2-[3-(1,4-diazepan-1-yl)anilino]-4-[4-methyl-2-(methylamino)thiazol-5-yl]pyrimidine-5-carbonitrile

> <PUBCHEM_IUPAC_INCHI>
InChI=1S/C21H24N8S/c1-14-19(30-21(23-2)26-14)18-15(12-22)13-25-20(28-18)27-16-5-3-6-17(11-16)29-9-4-7-24-8-10-29/h3,5-6,11,13,24H,4,7-10H2,1-2H3,(H,23,26)(H,25,27,28)

> <PUBCHEM_IUPAC_INCHIKEY>
BKOYUSKBPMSUBK-UHFFFAOYSA-N

> <PUBCHEM_XLOGP3_AA>
3.1

> <PUBCHEM_EXACT_MASS>
420.18446397

> <PUBCHEM_MOLECULAR_FORMULA>
C21H24N8S

> <PUBCHEM_MOLECULAR_WEIGHT>
420.5

> <PUBCHEM_SMILES>
CC1=C(SC(=N1)NC)C2=NC(=NC=C2C#N)NC3=CC(=CC=C3)N4CCCNCC4

> <PUBCHEM_OPENEYE_CAN_SMILES>
CC1=C(SC(=N1)NC)C2=NC(=NC=C2C#N)NC3=CC(=CC=C3)N4CCCNCC4

> <PUBCHEM_OPENEYE_ISO_SMILES>
CC1=C(SC(=N1)NC)C2=NC(=NC=C2C#N)NC3=CC(=CC=C3)N4CCCNCC4

> <PUBCHEM_CACTVS_TPSA>
130

> <PUBCHEM_MONOISOTOPIC_WEIGHT>
420.18446397

> <PUBCHEM_TOTAL_CHARGE>
0

> <PUBCHEM_HEAVY_ATOM_COUNT>
30

> <PUBCHEM_ATOM_DEF_STEREO_COUNT>
0

> <PUBCHEM_ATOM_UDEF_STEREO_COUNT>
0

> <PUBCHEM_BOND_DEF_STEREO_COUNT>
0

> <PUBCHEM_BOND_UDEF_STEREO_COUNT>
0

> <PUBCHEM_ISOTOPIC_ATOM_COUNT>
0

> <PUBCHEM_COMPONENT_COUNT>
1

> <PUBCHEM_CACTVS_TAUTO_COUNT>
-1

> <PUBCHEM_COORDINATE_TYPE>
1
5
255

> <PUBCHEM_BONDANNOTATIONS>
1  23  8
1  27  8
15  16  8
15  17  8
16  18  8
17  19  8
18  20  8
19  20  8
22  25  8
23  24  8
25  26  8
5  21  8
5  22  8
6  21  8
6  26  8
7  24  8
7  27  8

$$$$
