44219632
  -OEChem-03202506432D

 43 46  0     0  0  0  0  0  0999 V2000
   11.4639   -0.5913    0.0000 F   0  0  0  0  0  0  0  0  0  0  0  0
   12.2362   -1.7761    0.0000 F   0  0  0  0  0  0  0  0  0  0  0  0
   11.0514   -2.5484    0.0000 F   0  0  0  0  0  0  0  0  0  0  0  0
    2.5369    2.0484    0.0000 N   0  0  0  0  0  0  0  0  0  0  0  0
    5.1350    0.5484    0.0000 N   0  0  0  0  0  0  0  0  0  0  0  0
    7.7331    1.0484    0.0000 N   0  0  0  0  0  0  0  0  0  0  0  0
    6.8671    0.5484    0.0000 N   0  0  0  0  0  0  0  0  0  0  0  0
    8.6793    2.3531    0.0000 N   0  0  0  0  0  0  0  0  0  0  0  0
    9.2629    1.5484    0.0000 N   0  0  0  0  0  0  0  0  0  0  0  0
    4.2690    1.0484    0.0000 C   0  0  0  0  0  0  0  0  0  0  0  0
    3.4030    0.5484    0.0000 C   0  0  0  0  0  0  0  0  0  0  0  0
    4.2690    2.0484    0.0000 C   0  0  0  0  0  0  0  0  0  0  0  0
    2.5369    1.0484    0.0000 C   0  0  0  0  0  0  0  0  0  0  0  0
    3.4030    2.5484    0.0000 C   0  0  0  0  0  0  0  0  0  0  0  0
    6.0010    1.0484    0.0000 C   0  0  0  0  0  0  0  0  0  0  0  0
    6.0010    2.0484    0.0000 C   0  0  0  0  0  0  0  0  0  0  0  0
    7.7331    2.0484    0.0000 C   0  0  0  0  0  0  0  0  0  0  0  0
    8.6793    0.7436    0.0000 C   0  0  0  0  0  0  0  0  0  0  0  0
    6.8671    2.5484    0.0000 C   0  0  0  0  0  0  0  0  0  0  0  0
    8.9900   -0.2069    0.0000 C   0  0  0  0  0  0  0  0  0  0  0  0
    9.9685   -0.4131    0.0000 C   0  0  0  0  0  0  0  0  0  0  0  0
    8.3221   -0.9512    0.0000 C   0  0  0  0  0  0  0  0  0  0  0  0
   10.2791   -1.3636    0.0000 C   0  0  0  0  0  0  0  0  0  0  0  0
    8.6328   -1.9017    0.0000 C   0  0  0  0  0  0  0  0  0  0  0  0
    9.6113   -2.1079    0.0000 C   0  0  0  0  0  0  0  0  0  0  0  0
   11.2576   -1.5698    0.0000 C   0  0  0  0  0  0  0  0  0  0  0  0
    4.2690    0.4284    0.0000 H   0  0  0  0  0  0  0  0  0  0  0  0
    3.0044    0.0734    0.0000 H   0  0  0  0  0  0  0  0  0  0  0  0
    3.8015    0.0734    0.0000 H   0  0  0  0  0  0  0  0  0  0  0  0
    4.8796    1.9407    0.0000 H   0  0  0  0  0  0  0  0  0  0  0  0
    4.4810    2.6310    0.0000 H   0  0  0  0  0  0  0  0  0  0  0  0
    1.9264    1.1560    0.0000 H   0  0  0  0  0  0  0  0  0  0  0  0
    2.3249    0.4657    0.0000 H   0  0  0  0  0  0  0  0  0  0  0  0
    3.8015    3.0233    0.0000 H   0  0  0  0  0  0  0  0  0  0  0  0
    3.0044    3.0233    0.0000 H   0  0  0  0  0  0  0  0  0  0  0  0
    2.0000    2.3584    0.0000 H   0  0  0  0  0  0  0  0  0  0  0  0
    5.1350   -0.0716    0.0000 H   0  0  0  0  0  0  0  0  0  0  0  0
    5.4641    2.3584    0.0000 H   0  0  0  0  0  0  0  0  0  0  0  0
    6.8671    3.1684    0.0000 H   0  0  0  0  0  0  0  0  0  0  0  0
   10.3825    0.0484    0.0000 H   0  0  0  0  0  0  0  0  0  0  0  0
    7.7154   -0.8233    0.0000 H   0  0  0  0  0  0  0  0  0  0  0  0
    8.2187   -2.3632    0.0000 H   0  0  0  0  0  0  0  0  0  0  0  0
    9.8039   -2.6973    0.0000 H   0  0  0  0  0  0  0  0  0  0  0  0
  1 26  1  0  0  0  0
  2 26  1  0  0  0  0
  3 26  1  0  0  0  0
  4 13  1  0  0  0  0
  4 14  1  0  0  0  0
  4 36  1  0  0  0  0
  5 10  1  0  0  0  0
  5 15  1  0  0  0  0
  5 37  1  0  0  0  0
  6  7  1  0  0  0  0
  6 17  1  0  0  0  0
  6 18  1  0  0  0  0
  7 15  2  0  0  0  0
  8  9  1  0  0  0  0
  8 17  2  0  0  0  0
  9 18  2  0  0  0  0
 10 11  1  0  0  0  0
 10 12  1  0  0  0  0
 10 27  1  0  0  0  0
 11 13  1  0  0  0  0
 11 28  1  0  0  0  0
 11 29  1  0  0  0  0
 12 14  1  0  0  0  0
 12 30  1  0  0  0  0
 12 31  1  0  0  0  0
 13 32  1  0  0  0  0
 13 33  1  0  0  0  0
 14 34  1  0  0  0  0
 14 35  1  0  0  0  0
 15 16  1  0  0  0  0
 16 19  2  0  0  0  0
 16 38  1  0  0  0  0
 17 19  1  0  0  0  0
 18 20  1  0  0  0  0
 19 39  1  0  0  0  0
 20 21  2  0  0  0  0
 20 22  1  0  0  0  0
 21 23  1  0  0  0  0
 21 40  1  0  0  0  0
 22 24  2  0  0  0  0
 22 41  1  0  0  0  0
 23 25  2  0  0  0  0
 23 26  1  0  0  0  0
 24 25  1  0  0  0  0
 24 42  1  0  0  0  0
 25 43  1  0  0  0  0
M  END
> <PUBCHEM_COMPOUND_CID>
44219632

> <PUBCHEM_COMPOUND_CANONICALIZED>
1

> <PUBCHEM_CACTVS_COMPLEXITY>
470

> <PUBCHEM_CACTVS_HBOND_ACCEPTOR>
8

> <PUBCHEM_CACTVS_HBOND_DONOR>
2

> <PUBCHEM_CACTVS_ROTATABLE_BOND>
3

> <PUBCHEM_CACTVS_SUBSKEYS>
AAADceB7gYAAAAAAAAAAAAAAAAAAAWAAAAA8WIAAAAAAAFgB8AAAHQAYAAAADCjBGxQxsJ7IEACiAiJiZACShCshAqAdmKA4ZJiIKKLA2ZGEoAhwmALIyCcQgEAOAAACAAAAAAAAAAQAAAAAAAAAAAAAAA==

> <PUBCHEM_IUPAC_OPENEYE_NAME>
N-(4-piperidyl)-3-[3-(trifluoromethyl)phenyl]-[1,2,4]triazolo[4,3-b]pyridazin-6-amine

> <PUBCHEM_IUPAC_CAS_NAME>
N-(4-piperidinyl)-3-[3-(trifluoromethyl)phenyl]-[1,2,4]triazolo[4,3-b]pyridazin-6-amine

> <PUBCHEM_IUPAC_NAME_MARKUP>
<I>N</I>-piperidin-4-yl-3-[3-(trifluoromethyl)phenyl]-[1,2,4]triazolo[4,3-b]pyridazin-6-amine

> <PUBCHEM_IUPAC_NAME>
N-piperidin-4-yl-3-[3-(trifluoromethyl)phenyl]-[1,2,4]triazolo[4,3-b]pyridazin-6-amine

> <PUBCHEM_IUPAC_SYSTEMATIC_NAME>
N-piperidin-4-yl-3-[3-(trifluoromethyl)phenyl]-[1,2,4]triazolo[4,3-b]pyridazin-6-amine

> <PUBCHEM_IUPAC_TRADITIONAL_NAME>
4-piperidyl-[3-[3-(trifluoromethyl)phenyl]-[1,2,4]triazolo[4,3-b]pyridazin-6-yl]amine

> <PUBCHEM_IUPAC_INCHI>
InChI=1S/C17H17F3N6/c18-17(19,20)12-3-1-2-11(10-12)16-24-23-15-5-4-14(25-26(15)16)22-13-6-8-21-9-7-13/h1-5,10,13,21H,6-9H2,(H,22,25)

> <PUBCHEM_IUPAC_INCHIKEY>
SENFEQVLOFSJFU-UHFFFAOYSA-N

> <PUBCHEM_XLOGP3_AA>
2.7

> <PUBCHEM_EXACT_MASS>
362.14667905

> <PUBCHEM_MOLECULAR_FORMULA>
C17H17F3N6

> <PUBCHEM_MOLECULAR_WEIGHT>
362.4

> <PUBCHEM_SMILES>
C1CNCCC1NC2=NN3C(=NN=C3C4=CC(=CC=C4)C(F)(F)F)C=C2

> <PUBCHEM_OPENEYE_CAN_SMILES>
C1CNCCC1NC2=NN3C(=NN=C3C4=CC(=CC=C4)C(F)(F)F)C=C2

> <PUBCHEM_OPENEYE_ISO_SMILES>
C1CNCCC1NC2=NN3C(=NN=C3C4=CC(=CC=C4)C(F)(F)F)C=C2

> <PUBCHEM_CACTVS_TPSA>
67.1

> <PUBCHEM_MONOISOTOPIC_WEIGHT>
362.14667905

> <PUBCHEM_TOTAL_CHARGE>
0

> <PUBCHEM_HEAVY_ATOM_COUNT>
26

> <PUBCHEM_ATOM_DEF_STEREO_COUNT>
0

> <PUBCHEM_ATOM_UDEF_STEREO_COUNT>
0

> <PUBCHEM_BOND_DEF_STEREO_COUNT>
0

> <PUBCHEM_BOND_UDEF_STEREO_COUNT>
0

> <PUBCHEM_ISOTOPIC_ATOM_COUNT>
0

> <PUBCHEM_COMPONENT_COUNT>
1

> <PUBCHEM_CACTVS_TAUTO_COUNT>
-1

> <PUBCHEM_COORDINATE_TYPE>
1
5
255

> <PUBCHEM_BONDANNOTATIONS>
15  16  8
16  19  8
17  19  8
20  21  8
20  22  8
21  23  8
22  24  8
23  25  8
24  25  8
6  17  8
6  18  8
6  7  8
7  15  8
8  17  8
8  9  8
9  18  8

$$$$
