11562171
  -OEChem-03202506162D

 62 65  0     1  0  0  0  0  0999 V2000
   11.0828   -3.5272    0.0000 Cl  0  0  0  0  0  0  0  0  0  0  0  0
    9.3624   -2.5072    0.0000 F   0  0  0  0  0  0  0  0  0  0  0  0
    6.5391   -1.8388    0.0000 O   0  0  0  0  0  0  0  0  0  0  0  0
    5.9051    2.5272    0.0000 O   0  0  0  0  0  0  0  0  0  0  0  0
    3.6730   -0.6068    0.0000 N   0  0  0  0  0  0  0  0  0  0  0  0
    5.9051   -0.4728    0.0000 N   0  0  3  0  0  0  0  0  0  0  0  0
    5.0391   -2.7048    0.0000 N   0  0  0  0  0  0  0  0  0  0  0  0
    9.3971    2.5619    0.0000 N   0  0  0  0  0  0  0  0  0  0  0  0
    9.3855   -0.5074    0.0000 N   0  0  0  0  0  0  0  0  0  0  0  0
   10.3032    1.0064    0.0000 N   0  0  0  0  0  0  0  0  0  0  0  0
    5.0391   -0.9728    0.0000 C   0  0  0  0  0  0  0  0  0  0  0  0
    4.1730   -1.4728    0.0000 C   0  0  0  0  0  0  0  0  0  0  0  0
    4.5391   -0.1068    0.0000 C   0  0  0  0  0  0  0  0  0  0  0  0
    2.7071   -0.3479    0.0000 C   0  0  0  0  0  0  0  0  0  0  0  0
    5.5391   -1.8388    0.0000 C   0  0  0  0  0  0  0  0  0  0  0  0
    5.9051    0.5272    0.0000 C   0  0  0  0  0  0  0  0  0  0  0  0
    6.7711   -0.9728    0.0000 C   0  0  0  0  0  0  0  0  0  0  0  0
    2.0000   -1.0550    0.0000 C   0  0  0  0  0  0  0  0  0  0  0  0
    2.4483    0.6180    0.0000 C   0  0  0  0  0  0  0  0  0  0  0  0
    6.7711    1.0272    0.0000 C   0  0  0  0  0  0  0  0  0  0  0  0
    6.7711    2.0272    0.0000 C   0  0  0  0  0  0  0  0  0  0  0  0
    7.6371    0.5272    0.0000 C   0  0  0  0  0  0  0  0  0  0  0  0
    8.5032    1.0272    0.0000 C   0  0  0  0  0  0  0  0  0  0  0  0
    7.6371    2.5272    0.0000 C   0  0  0  0  0  0  0  0  0  0  0  0
    8.5032    2.0272    0.0000 C   0  0  0  0  0  0  0  0  0  0  0  0
    9.3971    0.4926    0.0000 C   0  0  0  0  0  0  0  0  0  0  0  0
    5.9051    3.5272    0.0000 C   0  0  0  0  0  0  0  0  0  0  0  0
   10.3032    2.0480    0.0000 C   0  0  0  0  0  0  0  0  0  0  0  0
   10.2457   -1.0174    0.0000 C   0  0  0  0  0  0  0  0  0  0  0  0
   10.2342   -2.0173    0.0000 C   0  0  0  0  0  0  0  0  0  0  0  0
   11.1175   -0.5274    0.0000 C   0  0  0  0  0  0  0  0  0  0  0  0
   11.0943   -2.5273    0.0000 C   0  0  0  0  0  0  0  0  0  0  0  0
   11.9777   -1.0374    0.0000 C   0  0  0  0  0  0  0  0  0  0  0  0
   11.9661   -2.0373    0.0000 C   0  0  0  0  0  0  0  0  0  0  0  0
    3.6361   -1.7828    0.0000 H   0  0  0  0  0  0  0  0  0  0  0  0
    4.4830   -2.0097    0.0000 H   0  0  0  0  0  0  0  0  0  0  0  0
    5.0760    0.2032    0.0000 H   0  0  0  0  0  0  0  0  0  0  0  0
    4.2291    0.4302    0.0000 H   0  0  0  0  0  0  0  0  0  0  0  0
    3.1455    0.0905    0.0000 H   0  0  0  0  0  0  0  0  0  0  0  0
    5.6930    1.1098    0.0000 H   0  0  0  0  0  0  0  0  0  0  0  0
    5.2945    0.4195    0.0000 H   0  0  0  0  0  0  0  0  0  0  0  0
    6.4611   -1.5097    0.0000 H   0  0  0  0  0  0  0  0  0  0  0  0
    7.3080   -1.2828    0.0000 H   0  0  0  0  0  0  0  0  0  0  0  0
    7.0811   -0.4359    0.0000 H   0  0  0  0  0  0  0  0  0  0  0  0
    1.5616   -0.6166    0.0000 H   0  0  0  0  0  0  0  0  0  0  0  0
    1.5616   -1.4935    0.0000 H   0  0  0  0  0  0  0  0  0  0  0  0
    2.4384   -1.4935    0.0000 H   0  0  0  0  0  0  0  0  0  0  0  0
    3.0472    0.7784    0.0000 H   0  0  0  0  0  0  0  0  0  0  0  0
    2.2878    1.2169    0.0000 H   0  0  0  0  0  0  0  0  0  0  0  0
    1.8494    0.4575    0.0000 H   0  0  0  0  0  0  0  0  0  0  0  0
    5.3491   -3.2418    0.0000 H   0  0  0  0  0  0  0  0  0  0  0  0
    4.4191   -2.7048    0.0000 H   0  0  0  0  0  0  0  0  0  0  0  0
    7.6371   -0.0928    0.0000 H   0  0  0  0  0  0  0  0  0  0  0  0
    7.6371    3.1472    0.0000 H   0  0  0  0  0  0  0  0  0  0  0  0
    6.5251    3.5272    0.0000 H   0  0  0  0  0  0  0  0  0  0  0  0
    5.9051    4.1472    0.0000 H   0  0  0  0  0  0  0  0  0  0  0  0
    5.2851    3.5272    0.0000 H   0  0  0  0  0  0  0  0  0  0  0  0
    8.8450   -0.8112    0.0000 H   0  0  0  0  0  0  0  0  0  0  0  0
   10.8389    2.3601    0.0000 H   0  0  0  0  0  0  0  0  0  0  0  0
   11.1246    0.0925    0.0000 H   0  0  0  0  0  0  0  0  0  0  0  0
   12.5181   -0.7336    0.0000 H   0  0  0  0  0  0  0  0  0  0  0  0
   12.4994   -2.3535    0.0000 H   0  0  0  0  0  0  0  0  0  0  0  0
  1 32  1  0  0  0  0
  2 30  1  0  0  0  0
  3 15  2  0  0  0  0
  4 21  1  0  0  0  0
  4 27  1  0  0  0  0
  5 12  1  0  0  0  0
  5 13  1  0  0  0  0
  5 14  1  0  0  0  0
  6 11  1  0  0  0  0
  6 16  1  0  0  0  0
  6 17  1  0  0  0  0
  7 15  1  0  0  0  0
  7 51  1  0  0  0  0
  7 52  1  0  0  0  0
  8 25  1  0  0  0  0
  8 28  2  0  0  0  0
  9 26  1  0  0  0  0
  9 29  1  0  0  0  0
  9 58  1  0  0  0  0
 10 26  2  0  0  0  0
 10 28  1  0  0  0  0
 11 12  1  0  0  0  0
 11 13  1  0  0  0  0
 11 15  1  0  0  0  0
 12 35  1  0  0  0  0
 12 36  1  0  0  0  0
 13 37  1  0  0  0  0
 13 38  1  0  0  0  0
 14 18  1  0  0  0  0
 14 19  1  0  0  0  0
 14 39  1  0  0  0  0
 16 20  1  0  0  0  0
 16 40  1  0  0  0  0
 16 41  1  0  0  0  0
 17 42  1  0  0  0  0
 17 43  1  0  0  0  0
 17 44  1  0  0  0  0
 18 45  1  0  0  0  0
 18 46  1  0  0  0  0
 18 47  1  0  0  0  0
 19 48  1  0  0  0  0
 19 49  1  0  0  0  0
 19 50  1  0  0  0  0
 20 21  1  0  0  0  0
 20 22  2  0  0  0  0
 21 24  2  0  0  0  0
 22 23  1  0  0  0  0
 22 53  1  0  0  0  0
 23 25  2  0  0  0  0
 23 26  1  0  0  0  0
 24 25  1  0  0  0  0
 24 54  1  0  0  0  0
 27 55  1  0  0  0  0
 27 56  1  0  0  0  0
 27 57  1  0  0  0  0
 28 59  1  0  0  0  0
 29 30  2  0  0  0  0
 29 31  1  0  0  0  0
 30 32  1  0  0  0  0
 31 33  2  0  0  0  0
 31 60  1  0  0  0  0
 32 34  2  0  0  0  0
 33 34  1  0  0  0  0
 33 61  1  0  0  0  0
 34 62  1  0  0  0  0
M  END
> <PUBCHEM_COMPOUND_CID>
11562171

> <PUBCHEM_COMPOUND_CANONICALIZED>
1

> <PUBCHEM_CACTVS_COMPLEXITY>
711

> <PUBCHEM_CACTVS_HBOND_ACCEPTOR>
8

> <PUBCHEM_CACTVS_HBOND_DONOR>
2

> <PUBCHEM_CACTVS_ROTATABLE_BOND>
8

> <PUBCHEM_CACTVS_SUBSKEYS>
AAADceB7sQAEAAAAAAAAAAAAAABYAAAAAAA8YIAAAAAAAACx9AAAHwIQAAAADK7Bni439vfIFACoAydzdACCiCkxJ6AJ2CG+bpiMburF+/uUNChu0BvI6CeQ0GMOKAACAgIKAABQAAQEBBQAAAAAAAAAAA==

> <PUBCHEM_IUPAC_OPENEYE_NAME>
3-[[4-(3-chloro-2-fluoro-anilino)-7-methoxy-quinazolin-6-yl]methyl-methyl-amino]-1-isopropyl-azetidine-3-carboxamide

> <PUBCHEM_IUPAC_CAS_NAME>
3-[[4-(3-chloro-2-fluoroanilino)-7-methoxy-6-quinazolinyl]methyl-methylamino]-1-propan-2-yl-3-azetidinecarboxamide

> <PUBCHEM_IUPAC_NAME_MARKUP>
3-[[4-(3-chloro-2-fluoroanilino)-7-methoxyquinazolin-6-yl]methyl-methylamino]-1-propan-2-ylazetidine-3-carboxamide

> <PUBCHEM_IUPAC_NAME>
3-[[4-(3-chloro-2-fluoroanilino)-7-methoxyquinazolin-6-yl]methyl-methylamino]-1-propan-2-ylazetidine-3-carboxamide

> <PUBCHEM_IUPAC_SYSTEMATIC_NAME>
3-[[4-[(3-chloranyl-2-fluoranyl-phenyl)amino]-7-methoxy-quinazolin-6-yl]methyl-methyl-amino]-1-propan-2-yl-azetidine-3-carboxamide

> <PUBCHEM_IUPAC_TRADITIONAL_NAME>
3-[[4-(3-chloro-2-fluoro-anilino)-7-methoxy-quinazolin-6-yl]methyl-methyl-amino]-1-isopropyl-azetidine-3-carboxamide

> <PUBCHEM_IUPAC_INCHI>
InChI=1S/C24H28ClFN6O2/c1-14(2)32-11-24(12-32,23(27)33)31(3)10-15-8-16-19(9-20(15)34-4)28-13-29-22(16)30-18-7-5-6-17(25)21(18)26/h5-9,13-14H,10-12H2,1-4H3,(H2,27,33)(H,28,29,30)

> <PUBCHEM_IUPAC_INCHIKEY>
VUWJAUDVPQZJHG-UHFFFAOYSA-N

> <PUBCHEM_XLOGP3_AA>
3.4

> <PUBCHEM_EXACT_MASS>
486.1946300

> <PUBCHEM_MOLECULAR_FORMULA>
C24H28ClFN6O2

> <PUBCHEM_MOLECULAR_WEIGHT>
487.0

> <PUBCHEM_SMILES>
CC(C)N1CC(C1)(C(=O)N)N(C)CC2=CC3=C(C=C2OC)N=CN=C3NC4=C(C(=CC=C4)Cl)F

> <PUBCHEM_OPENEYE_CAN_SMILES>
CC(C)N1CC(C1)(C(=O)N)N(C)CC2=CC3=C(C=C2OC)N=CN=C3NC4=C(C(=CC=C4)Cl)F

> <PUBCHEM_OPENEYE_ISO_SMILES>
CC(C)N1CC(C1)(C(=O)N)N(C)CC2=CC3=C(C=C2OC)N=CN=C3NC4=C(C(=CC=C4)Cl)F

> <PUBCHEM_CACTVS_TPSA>
96.6

> <PUBCHEM_MONOISOTOPIC_WEIGHT>
486.1946300

> <PUBCHEM_TOTAL_CHARGE>
0

> <PUBCHEM_HEAVY_ATOM_COUNT>
34

> <PUBCHEM_ATOM_DEF_STEREO_COUNT>
0

> <PUBCHEM_ATOM_UDEF_STEREO_COUNT>
0

> <PUBCHEM_BOND_DEF_STEREO_COUNT>
0

> <PUBCHEM_BOND_UDEF_STEREO_COUNT>
0

> <PUBCHEM_ISOTOPIC_ATOM_COUNT>
0

> <PUBCHEM_COMPONENT_COUNT>
1

> <PUBCHEM_CACTVS_TAUTO_COUNT>
-1

> <PUBCHEM_COORDINATE_TYPE>
1
5
255

> <PUBCHEM_BONDANNOTATIONS>
10  26  8
10  28  8
20  21  8
20  22  8
21  24  8
22  23  8
23  25  8
23  26  8
24  25  8
29  30  8
29  31  8
30  32  8
31  33  8
32  34  8
33  34  8
8  25  8
8  28  8

$$$$
