44328782
  -OEChem-03202507322D

 63 66  0     1  0  0  0  0  0999 V2000
    9.2683   -2.1914    0.0000 O   0  0  0  0  0  0  0  0  0  0  0  0
    8.6097    4.0988    0.0000 O   0  0  0  0  0  0  0  0  0  0  0  0
    6.5406    6.9466    0.0000 O   0  0  0  0  0  0  0  0  0  0  0  0
    6.5406    3.4265    0.0000 N   0  0  0  0  0  0  0  0  0  0  0  0
    7.6210   -1.6561    0.0000 N   0  0  0  0  0  0  0  0  0  0  0  0
    4.6783    4.3818    0.0000 N   0  0  0  0  0  0  0  0  0  0  0  0
    7.8007    5.6866    0.0000 N   0  0  0  0  0  0  0  0  0  0  0  0
    7.0030   -3.5582    0.0000 N   0  0  0  0  0  0  0  0  0  0  0  0
    7.5699    0.9891    0.0000 C   0  0  0  0  0  0  0  0  0  0  0  0
    6.9008    1.7323    0.0000 C   0  0  0  0  0  0  0  0  0  0  0  0
    7.2609    0.0381    0.0000 C   0  0  0  0  0  0  0  0  0  0  0  0
    7.2098    2.6833    0.0000 C   0  0  0  0  0  0  0  0  0  0  0  0
    7.9300   -0.7051    0.0000 C   0  0  0  0  0  0  0  0  0  0  0  0
    6.8497    4.3775    0.0000 C   0  0  0  0  0  0  0  0  0  0  0  0
    6.2619    5.1866    0.0000 C   0  0  0  0  0  0  0  0  0  0  0  0
    5.2619    5.1866    0.0000 C   0  0  0  0  0  0  0  0  0  0  0  0
    7.9811   -3.3503    0.0000 C   0  0  3  0  0  0  0  0  0  0  0  0
    3.7320    4.6866    0.0000 C   0  0  0  0  0  0  0  0  0  0  0  0
    3.7320    5.6866    0.0000 C   0  0  0  0  0  0  0  0  0  0  0  0
    4.6783    5.9913    0.0000 C   0  0  0  0  0  0  0  0  0  0  0  0
    8.6502   -4.0935    0.0000 C   0  0  0  0  0  0  0  0  0  0  0  0
    7.8007    4.6866    0.0000 C   0  0  0  0  0  0  0  0  0  0  0  0
    8.2901   -2.3993    0.0000 C   0  0  0  0  0  0  0  0  0  0  0  0
    6.8497    5.9956    0.0000 C   0  0  0  0  0  0  0  0  0  0  0  0
    8.3412   -5.0445    0.0000 C   0  0  0  0  0  0  0  0  0  0  0  0
    2.8660    4.1866    0.0000 C   0  0  0  0  0  0  0  0  0  0  0  0
    2.8660    6.1866    0.0000 C   0  0  0  0  0  0  0  0  0  0  0  0
    2.0000    4.6866    0.0000 C   0  0  0  0  0  0  0  0  0  0  0  0
    2.0000    5.6866    0.0000 C   0  0  0  0  0  0  0  0  0  0  0  0
    7.3631   -5.2524    0.0000 C   0  0  0  0  0  0  0  0  0  0  0  0
    9.0104   -5.7877    0.0000 C   0  0  0  0  0  0  0  0  0  0  0  0
    7.0540   -6.2035    0.0000 C   0  0  0  0  0  0  0  0  0  0  0  0
    8.7013   -6.7387    0.0000 C   0  0  0  0  0  0  0  0  0  0  0  0
    7.7232   -6.9466    0.0000 C   0  0  0  0  0  0  0  0  0  0  0  0
    8.1173    0.6981    0.0000 H   0  0  0  0  0  0  0  0  0  0  0  0
    7.9516    1.4777    0.0000 H   0  0  0  0  0  0  0  0  0  0  0  0
    6.3533    2.0234    0.0000 H   0  0  0  0  0  0  0  0  0  0  0  0
    6.5190    1.2437    0.0000 H   0  0  0  0  0  0  0  0  0  0  0  0
    6.7134    0.3292    0.0000 H   0  0  0  0  0  0  0  0  0  0  0  0
    6.8792   -0.4505    0.0000 H   0  0  0  0  0  0  0  0  0  0  0  0
    7.7572    2.3923    0.0000 H   0  0  0  0  0  0  0  0  0  0  0  0
    7.5915    3.1719    0.0000 H   0  0  0  0  0  0  0  0  0  0  0  0
    8.4774   -0.9961    0.0000 H   0  0  0  0  0  0  0  0  0  0  0  0
    8.3117   -0.2165    0.0000 H   0  0  0  0  0  0  0  0  0  0  0  0
    5.9342    3.2976    0.0000 H   0  0  0  0  0  0  0  0  0  0  0  0
    7.7895   -3.9400    0.0000 H   0  0  0  0  0  0  0  0  0  0  0  0
    7.0145   -1.7850    0.0000 H   0  0  0  0  0  0  0  0  0  0  0  0
    9.1977   -4.3845    0.0000 H   0  0  0  0  0  0  0  0  0  0  0  0
    9.0319   -3.6049    0.0000 H   0  0  0  0  0  0  0  0  0  0  0  0
    4.8709    3.7925    0.0000 H   0  0  0  0  0  0  0  0  0  0  0  0
    4.8709    6.5806    0.0000 H   0  0  0  0  0  0  0  0  0  0  0  0
    8.3023    6.0510    0.0000 H   0  0  0  0  0  0  0  0  0  0  0  0
    2.8660    3.5666    0.0000 H   0  0  0  0  0  0  0  0  0  0  0  0
    2.8660    6.8066    0.0000 H   0  0  0  0  0  0  0  0  0  0  0  0
    6.5881   -3.0975    0.0000 H   0  0  0  0  0  0  0  0  0  0  0  0
    6.8114   -4.1479    0.0000 H   0  0  0  0  0  0  0  0  0  0  0  0
    1.4631    4.3766    0.0000 H   0  0  0  0  0  0  0  0  0  0  0  0
    1.4631    5.9966    0.0000 H   0  0  0  0  0  0  0  0  0  0  0  0
    6.9482   -4.7917    0.0000 H   0  0  0  0  0  0  0  0  0  0  0  0
    9.6168   -5.6588    0.0000 H   0  0  0  0  0  0  0  0  0  0  0  0
    6.4476   -6.3324    0.0000 H   0  0  0  0  0  0  0  0  0  0  0  0
    9.1162   -7.1995    0.0000 H   0  0  0  0  0  0  0  0  0  0  0  0
    7.5316   -7.5363    0.0000 H   0  0  0  0  0  0  0  0  0  0  0  0
  1 23  2  0  0  0  0
  2 22  2  0  0  0  0
  3 24  2  0  0  0  0
  4 12  1  0  0  0  0
  4 14  1  0  0  0  0
  4 45  1  0  0  0  0
  5 13  1  0  0  0  0
  5 23  1  0  0  0  0
  5 47  1  0  0  0  0
  6 16  1  0  0  0  0
  6 18  1  0  0  0  0
  6 50  1  0  0  0  0
  7 22  1  0  0  0  0
  7 24  1  0  0  0  0
  7 52  1  0  0  0  0
  8 17  1  0  0  0  0
  8 55  1  0  0  0  0
  8 56  1  0  0  0  0
  9 10  1  0  0  0  0
  9 11  1  0  0  0  0
  9 35  1  0  0  0  0
  9 36  1  0  0  0  0
 10 12  1  0  0  0  0
 10 37  1  0  0  0  0
 10 38  1  0  0  0  0
 11 13  1  0  0  0  0
 11 39  1  0  0  0  0
 11 40  1  0  0  0  0
 12 41  1  0  0  0  0
 12 42  1  0  0  0  0
 13 43  1  0  0  0  0
 13 44  1  0  0  0  0
 14 15  2  0  0  0  0
 14 22  1  0  0  0  0
 15 16  1  0  0  0  0
 15 24  1  0  0  0  0
 16 20  2  0  0  0  0
 17 21  1  0  0  0  0
 17 23  1  0  0  0  0
 17 46  1  0  0  0  0
 18 19  1  0  0  0  0
 18 26  2  0  0  0  0
 19 20  1  0  0  0  0
 19 27  2  0  0  0  0
 20 51  1  0  0  0  0
 21 25  1  0  0  0  0
 21 48  1  0  0  0  0
 21 49  1  0  0  0  0
 25 30  2  0  0  0  0
 25 31  1  0  0  0  0
 26 28  1  0  0  0  0
 26 53  1  0  0  0  0
 27 29  1  0  0  0  0
 27 54  1  0  0  0  0
 28 29  2  0  0  0  0
 28 57  1  0  0  0  0
 29 58  1  0  0  0  0
 30 32  1  0  0  0  0
 30 59  1  0  0  0  0
 31 33  2  0  0  0  0
 31 60  1  0  0  0  0
 32 34  2  0  0  0  0
 32 61  1  0  0  0  0
 33 34  1  0  0  0  0
 33 62  1  0  0  0  0
 34 63  1  0  0  0  0
M  END
> <PUBCHEM_COMPOUND_CID>
44328782

> <PUBCHEM_COMPOUND_CANONICALIZED>
1

> <PUBCHEM_CACTVS_COMPLEXITY>
776

> <PUBCHEM_CACTVS_HBOND_ACCEPTOR>
5

> <PUBCHEM_CACTVS_HBOND_DONOR>
5

> <PUBCHEM_CACTVS_ROTATABLE_BOND>
11

> <PUBCHEM_CACTVS_SUBSKEYS>
AAADceB7sAAAAAAAAAAAAAAAAAAAAWIAAAAwYAAAAAAAAFgB9AAAHgAQAAAADCjBngQwwPLJkACoAyVyVACCgCAhAiAImaG4ZNgIYPrA1bGUIAhgliDIyUcYiICOAAAAAAACAAAAAAAAAAQAAAAAAAAAAA==

> <PUBCHEM_IUPAC_OPENEYE_NAME>
2-amino-N-[5-[[4-(1H-indol-2-yl)-2,5-dioxo-pyrrol-3-yl]amino]pentyl]-3-phenyl-propanamide

> <PUBCHEM_IUPAC_CAS_NAME>
2-amino-N-[5-[[4-(1H-indol-2-yl)-2,5-dioxo-3-pyrrolyl]amino]pentyl]-3-phenylpropanamide

> <PUBCHEM_IUPAC_NAME_MARKUP>
2-amino-<I>N</I>-[5-[[4-(1<I>H</I>-indol-2-yl)-2,5-dioxopyrrol-3-yl]amino]pentyl]-3-phenylpropanamide

> <PUBCHEM_IUPAC_NAME>
2-amino-N-[5-[[4-(1H-indol-2-yl)-2,5-dioxopyrrol-3-yl]amino]pentyl]-3-phenylpropanamide

> <PUBCHEM_IUPAC_SYSTEMATIC_NAME>
2-azanyl-N-[5-[[4-(1H-indol-2-yl)-2,5-bis(oxidanylidene)pyrrol-3-yl]amino]pentyl]-3-phenyl-propanamide

> <PUBCHEM_IUPAC_TRADITIONAL_NAME>
2-amino-N-[5-[[4-(1H-indol-2-yl)-2,5-diketo-3-pyrrolin-3-yl]amino]pentyl]-3-phenyl-propionamide

> <PUBCHEM_IUPAC_INCHI>
InChI=1S/C26H29N5O3/c27-19(15-17-9-3-1-4-10-17)24(32)29-14-8-2-7-13-28-23-22(25(33)31-26(23)34)21-16-18-11-5-6-12-20(18)30-21/h1,3-6,9-12,16,19,30H,2,7-8,13-15,27H2,(H,29,32)(H2,28,31,33,34)

> <PUBCHEM_IUPAC_INCHIKEY>
LAHSHMPSSJAHAY-UHFFFAOYSA-N

> <PUBCHEM_XLOGP3_AA>
2.8

> <PUBCHEM_EXACT_MASS>
459.22703980

> <PUBCHEM_MOLECULAR_FORMULA>
C26H29N5O3

> <PUBCHEM_MOLECULAR_WEIGHT>
459.5

> <PUBCHEM_SMILES>
C1=CC=C(C=C1)CC(C(=O)NCCCCCNC2=C(C(=O)NC2=O)C3=CC4=CC=CC=C4N3)N

> <PUBCHEM_OPENEYE_CAN_SMILES>
C1=CC=C(C=C1)CC(C(=O)NCCCCCNC2=C(C(=O)NC2=O)C3=CC4=CC=CC=C4N3)N

> <PUBCHEM_OPENEYE_ISO_SMILES>
C1=CC=C(C=C1)CC(C(=O)NCCCCCNC2=C(C(=O)NC2=O)C3=CC4=CC=CC=C4N3)N

> <PUBCHEM_CACTVS_TPSA>
129

> <PUBCHEM_MONOISOTOPIC_WEIGHT>
459.22703980

> <PUBCHEM_TOTAL_CHARGE>
0

> <PUBCHEM_HEAVY_ATOM_COUNT>
34

> <PUBCHEM_ATOM_DEF_STEREO_COUNT>
0

> <PUBCHEM_ATOM_UDEF_STEREO_COUNT>
1

> <PUBCHEM_BOND_DEF_STEREO_COUNT>
0

> <PUBCHEM_BOND_UDEF_STEREO_COUNT>
0

> <PUBCHEM_ISOTOPIC_ATOM_COUNT>
0

> <PUBCHEM_COMPONENT_COUNT>
1

> <PUBCHEM_CACTVS_TAUTO_COUNT>
-1

> <PUBCHEM_COORDINATE_TYPE>
1
5
255

> <PUBCHEM_BONDANNOTATIONS>
16  20  8
18  19  8
18  26  8
19  20  8
19  27  8
25  30  8
25  31  8
26  28  8
27  29  8
28  29  8
30  32  8
31  33  8
32  34  8
33  34  8
6  16  8
6  18  8
17  8  3

$$$$
