3810484
  -OEChem-03202506302D

 30 32  0     0  0  0  0  0  0999 V2000
    2.0000   -0.1658    0.0000 Cl  0  0  0  0  0  0  0  0  0  0  0  0
    7.2622   -2.1900    0.0000 O   0  0  0  0  0  0  0  0  0  0  0  0
    5.5301   -2.1900    0.0000 N   0  0  0  0  0  0  0  0  0  0  0  0
    7.2622   -0.1900    0.0000 N   0  0  0  0  0  0  0  0  0  0  0  0
    5.5301   -0.1900    0.0000 C   0  0  0  0  0  0  0  0  0  0  0  0
    4.6641   -0.6900    0.0000 C   0  0  0  0  0  0  0  0  0  0  0  0
    4.6641   -1.6900    0.0000 C   0  0  0  0  0  0  0  0  0  0  0  0
    6.3961   -0.6900    0.0000 C   0  0  0  0  0  0  0  0  0  0  0  0
    5.5301    0.8100    0.0000 C   0  0  0  0  0  0  0  0  0  0  0  0
    3.7702   -0.1553    0.0000 C   0  0  0  0  0  0  0  0  0  0  0  0
    6.3961   -1.6900    0.0000 C   0  0  0  0  0  0  0  0  0  0  0  0
    3.7702   -2.2247    0.0000 C   0  0  0  0  0  0  0  0  0  0  0  0
    2.8641   -0.6692    0.0000 C   0  0  0  0  0  0  0  0  0  0  0  0
    6.3961    1.3100    0.0000 C   0  0  0  0  0  0  0  0  0  0  0  0
    4.6641    1.3100    0.0000 C   0  0  0  0  0  0  0  0  0  0  0  0
    2.8641   -1.7108    0.0000 C   0  0  0  0  0  0  0  0  0  0  0  0
    6.3961    2.3100    0.0000 C   0  0  0  0  0  0  0  0  0  0  0  0
    4.6641    2.3100    0.0000 C   0  0  0  0  0  0  0  0  0  0  0  0
    5.5301    2.8100    0.0000 C   0  0  0  0  0  0  0  0  0  0  0  0
    5.5301   -2.8100    0.0000 H   0  0  0  0  0  0  0  0  0  0  0  0
    3.7773    0.4646    0.0000 H   0  0  0  0  0  0  0  0  0  0  0  0
    3.7773   -2.8446    0.0000 H   0  0  0  0  0  0  0  0  0  0  0  0
    6.9331    1.0000    0.0000 H   0  0  0  0  0  0  0  0  0  0  0  0
    4.1272    1.0000    0.0000 H   0  0  0  0  0  0  0  0  0  0  0  0
    2.3284   -2.0229    0.0000 H   0  0  0  0  0  0  0  0  0  0  0  0
    7.7991   -0.5000    0.0000 H   0  0  0  0  0  0  0  0  0  0  0  0
    7.2622    0.4300    0.0000 H   0  0  0  0  0  0  0  0  0  0  0  0
    6.9331    2.6200    0.0000 H   0  0  0  0  0  0  0  0  0  0  0  0
    4.1272    2.6200    0.0000 H   0  0  0  0  0  0  0  0  0  0  0  0
    5.5301    3.4300    0.0000 H   0  0  0  0  0  0  0  0  0  0  0  0
  1 13  1  0  0  0  0
  2 11  2  0  0  0  0
  3  7  1  0  0  0  0
  3 11  1  0  0  0  0
  3 20  1  0  0  0  0
  4  8  1  0  0  0  0
  4 26  1  0  0  0  0
  4 27  1  0  0  0  0
  5  6  1  0  0  0  0
  5  8  2  0  0  0  0
  5  9  1  0  0  0  0
  6  7  2  0  0  0  0
  6 10  1  0  0  0  0
  7 12  1  0  0  0  0
  8 11  1  0  0  0  0
  9 14  2  0  0  0  0
  9 15  1  0  0  0  0
 10 13  2  0  0  0  0
 10 21  1  0  0  0  0
 12 16  2  0  0  0  0
 12 22  1  0  0  0  0
 13 16  1  0  0  0  0
 14 17  1  0  0  0  0
 14 23  1  0  0  0  0
 15 18  2  0  0  0  0
 15 24  1  0  0  0  0
 16 25  1  0  0  0  0
 17 19  2  0  0  0  0
 17 28  1  0  0  0  0
 18 19  1  0  0  0  0
 18 29  1  0  0  0  0
 19 30  1  0  0  0  0
M  END
> <PUBCHEM_COMPOUND_CID>
3810484

> <PUBCHEM_COMPOUND_CANONICALIZED>
1

> <PUBCHEM_CACTVS_COMPLEXITY>
401

> <PUBCHEM_CACTVS_HBOND_ACCEPTOR>
2

> <PUBCHEM_CACTVS_HBOND_DONOR>
2

> <PUBCHEM_CACTVS_ROTATABLE_BOND>
1

> <PUBCHEM_CACTVS_SUBSKEYS>
AAADccBzIAAEAAAAAAAAAAAAAAAAAAAAAAAwYIAAAAAAAACBQAAAHgIQAAAADAqBmCAwwILAAACIAiVSUACCAAAhBwAIiACAZsgIYCLBk5GUIAhglADIyQcQgMAOAABAIAACAAAAAIBAAAQAAAAAAAAAAA==

> <PUBCHEM_IUPAC_OPENEYE_NAME>
3-amino-6-chloro-4-phenyl-1H-quinolin-2-one

> <PUBCHEM_IUPAC_CAS_NAME>
3-amino-6-chloro-4-phenyl-1H-quinolin-2-one

> <PUBCHEM_IUPAC_NAME_MARKUP>
3-amino-6-chloro-4-phenyl-1<I>H</I>-quinolin-2-one

> <PUBCHEM_IUPAC_NAME>
3-amino-6-chloro-4-phenyl-1H-quinolin-2-one

> <PUBCHEM_IUPAC_SYSTEMATIC_NAME>
3-azanyl-6-chloranyl-4-phenyl-1H-quinolin-2-one

> <PUBCHEM_IUPAC_TRADITIONAL_NAME>
3-amino-6-chloro-4-phenyl-carbostyril

> <PUBCHEM_IUPAC_INCHI>
InChI=1S/C15H11ClN2O/c16-10-6-7-12-11(8-10)13(14(17)15(19)18-12)9-4-2-1-3-5-9/h1-8H,17H2,(H,18,19)

> <PUBCHEM_IUPAC_INCHIKEY>
DTVBJIVUGSOZDZ-UHFFFAOYSA-N

> <PUBCHEM_XLOGP3_AA>
2.7

> <PUBCHEM_EXACT_MASS>
270.0559907

> <PUBCHEM_MOLECULAR_FORMULA>
C15H11ClN2O

> <PUBCHEM_MOLECULAR_WEIGHT>
270.71

> <PUBCHEM_SMILES>
C1=CC=C(C=C1)C2=C(C(=O)NC3=C2C=C(C=C3)Cl)N

> <PUBCHEM_OPENEYE_CAN_SMILES>
C1=CC=C(C=C1)C2=C(C(=O)NC3=C2C=C(C=C3)Cl)N

> <PUBCHEM_OPENEYE_ISO_SMILES>
C1=CC=C(C=C1)C2=C(C(=O)NC3=C2C=C(C=C3)Cl)N

> <PUBCHEM_CACTVS_TPSA>
55.1

> <PUBCHEM_MONOISOTOPIC_WEIGHT>
270.0559907

> <PUBCHEM_TOTAL_CHARGE>
0

> <PUBCHEM_HEAVY_ATOM_COUNT>
19

> <PUBCHEM_ATOM_DEF_STEREO_COUNT>
0

> <PUBCHEM_ATOM_UDEF_STEREO_COUNT>
0

> <PUBCHEM_BOND_DEF_STEREO_COUNT>
0

> <PUBCHEM_BOND_UDEF_STEREO_COUNT>
0

> <PUBCHEM_ISOTOPIC_ATOM_COUNT>
0

> <PUBCHEM_COMPONENT_COUNT>
1

> <PUBCHEM_CACTVS_TAUTO_COUNT>
-1

> <PUBCHEM_COORDINATE_TYPE>
1
5
255

> <PUBCHEM_BONDANNOTATIONS>
10  13  8
12  16  8
13  16  8
14  17  8
15  18  8
17  19  8
18  19  8
3  11  8
3  7  8
5  6  8
5  8  8
6  10  8
6  7  8
7  12  8
8  11  8
9  14  8
9  15  8

$$$$
