16220354
  -OEChem-03202506032D

 63 68  0     0  0  0  0  0  0999 V2000
   12.6615    0.3355    0.0000 S   0  0  0  0  0  0  0  0  0  0  0  0
   16.5647   -0.8803    0.0000 O   0  0  0  0  0  0  0  0  0  0  0  0
    4.9368    1.7344    0.0000 N   0  0  0  0  0  0  0  0  0  0  0  0
    2.9789    1.3261    0.0000 N   0  0  0  0  0  0  0  0  0  0  0  0
    9.0971   -1.8667    0.0000 N   0  0  0  0  0  0  0  0  0  0  0  0
   10.0912   -1.8658    0.0000 N   0  0  0  0  0  0  0  0  0  0  0  0
    4.2706    2.4801    0.0000 C   0  0  0  0  0  0  0  0  0  0  0  0
    4.6241    0.7845    0.0000 C   0  0  0  0  0  0  0  0  0  0  0  0
    5.9158    1.9385    0.0000 C   0  0  0  0  0  0  0  0  0  0  0  0
    3.2916    2.2760    0.0000 C   0  0  0  0  0  0  0  0  0  0  0  0
    3.6452    0.5804    0.0000 C   0  0  0  0  0  0  0  0  0  0  0  0
    8.2875    0.6168    0.0000 C   0  0  0  0  0  0  0  0  0  0  0  0
    6.5820    1.1928    0.0000 C   0  0  0  0  0  0  0  0  0  0  0  0
    9.2875    0.6168    0.0000 C   0  0  0  0  0  0  0  0  0  0  0  0
    7.9785   -0.3343    0.0000 C   0  0  0  0  0  0  0  0  0  0  0  0
    9.5965   -0.3343    0.0000 C   0  0  0  0  0  0  0  0  0  0  0  0
    8.7875   -0.9221    0.0000 C   0  0  0  0  0  0  0  0  0  0  0  0
    7.6025    1.4015    0.0000 C   0  0  0  0  0  0  0  0  0  0  0  0
    6.2602    0.2021    0.0000 C   0  0  0  0  0  0  0  0  0  0  0  0
    6.9631   -0.5665    0.0000 C   0  0  0  0  0  0  0  0  0  0  0  0
   10.3992   -0.9207    0.0000 C   0  0  0  0  0  0  0  0  0  0  0  0
    2.0000    1.1220    0.0000 C   0  0  0  0  0  0  0  0  0  0  0  0
   11.3508   -0.6133    0.0000 C   0  0  0  0  0  0  0  0  0  0  0  0
   12.1588   -1.2025    0.0000 C   0  0  0  0  0  0  0  0  0  0  0  0
   11.6615    0.3372    0.0000 C   0  0  0  0  0  0  0  0  0  0  0  0
   12.9689   -0.6161    0.0000 C   0  0  0  0  0  0  0  0  0  0  0  0
   13.9194   -0.9268    0.0000 C   0  0  0  0  0  0  0  0  0  0  0  0
   14.8699   -1.2374    0.0000 C   0  0  0  0  0  0  0  0  0  0  0  0
   15.8204   -1.5481    0.0000 C   0  0  0  0  0  0  0  0  0  0  0  0
   17.5152   -1.1909    0.0000 C   0  0  0  0  0  0  0  0  0  0  0  0
   17.7215   -2.1694    0.0000 C   0  0  0  0  0  0  0  0  0  0  0  0
   18.2595   -0.5231    0.0000 C   0  0  0  0  0  0  0  0  0  0  0  0
   18.6720   -2.4801    0.0000 C   0  0  0  0  0  0  0  0  0  0  0  0
   19.2101   -0.8337    0.0000 C   0  0  0  0  0  0  0  0  0  0  0  0
   19.4163   -1.8122    0.0000 C   0  0  0  0  0  0  0  0  0  0  0  0
    4.7976    2.8066    0.0000 H   0  0  0  0  0  0  0  0  0  0  0  0
    4.0405    3.0558    0.0000 H   0  0  0  0  0  0  0  0  0  0  0  0
    4.6434    0.1648    0.0000 H   0  0  0  0  0  0  0  0  0  0  0  0
    5.2378    0.6959    0.0000 H   0  0  0  0  0  0  0  0  0  0  0  0
    6.4428    2.2650    0.0000 H   0  0  0  0  0  0  0  0  0  0  0  0
    5.6857    2.5143    0.0000 H   0  0  0  0  0  0  0  0  0  0  0  0
    3.2724    2.8956    0.0000 H   0  0  0  0  0  0  0  0  0  0  0  0
    2.6780    2.3646    0.0000 H   0  0  0  0  0  0  0  0  0  0  0  0
    3.1182    0.2539    0.0000 H   0  0  0  0  0  0  0  0  0  0  0  0
    3.8752    0.0046    0.0000 H   0  0  0  0  0  0  0  0  0  0  0  0
    9.8940    0.7457    0.0000 H   0  0  0  0  0  0  0  0  0  0  0  0
    9.2227    1.2334    0.0000 H   0  0  0  0  0  0  0  0  0  0  0  0
    7.8009    1.9889    0.0000 H   0  0  0  0  0  0  0  0  0  0  0  0
    5.6542    0.0709    0.0000 H   0  0  0  0  0  0  0  0  0  0  0  0
    6.7783   -1.1584    0.0000 H   0  0  0  0  0  0  0  0  0  0  0  0
    1.8734    1.7289    0.0000 H   0  0  0  0  0  0  0  0  0  0  0  0
    1.3931    0.9954    0.0000 H   0  0  0  0  0  0  0  0  0  0  0  0
    2.1266    0.5150    0.0000 H   0  0  0  0  0  0  0  0  0  0  0  0
    8.7336   -2.3689    0.0000 H   0  0  0  0  0  0  0  0  0  0  0  0
   12.1577   -1.8225    0.0000 H   0  0  0  0  0  0  0  0  0  0  0  0
   11.2979    0.8394    0.0000 H   0  0  0  0  0  0  0  0  0  0  0  0
   15.5284   -2.0950    0.0000 H   0  0  0  0  0  0  0  0  0  0  0  0
   16.3083   -1.9307    0.0000 H   0  0  0  0  0  0  0  0  0  0  0  0
   17.2600   -2.5835    0.0000 H   0  0  0  0  0  0  0  0  0  0  0  0
   18.1317    0.0836    0.0000 H   0  0  0  0  0  0  0  0  0  0  0  0
   18.7998   -3.0868    0.0000 H   0  0  0  0  0  0  0  0  0  0  0  0
   19.6715   -0.4197    0.0000 H   0  0  0  0  0  0  0  0  0  0  0  0
   20.0056   -2.0049    0.0000 H   0  0  0  0  0  0  0  0  0  0  0  0
  1 25  1  0  0  0  0
  1 26  1  0  0  0  0
  2 29  1  0  0  0  0
  2 30  1  0  0  0  0
  3  7  1  0  0  0  0
  3  8  1  0  0  0  0
  3  9  1  0  0  0  0
  4 10  1  0  0  0  0
  4 11  1  0  0  0  0
  4 22  1  0  0  0  0
  5  6  1  0  0  0  0
  5 17  1  0  0  0  0
  5 54  1  0  0  0  0
  6 21  2  0  0  0  0
  7 10  1  0  0  0  0
  7 36  1  0  0  0  0
  7 37  1  0  0  0  0
  8 11  1  0  0  0  0
  8 38  1  0  0  0  0
  8 39  1  0  0  0  0
  9 13  1  0  0  0  0
  9 40  1  0  0  0  0
  9 41  1  0  0  0  0
 10 42  1  0  0  0  0
 10 43  1  0  0  0  0
 11 44  1  0  0  0  0
 11 45  1  0  0  0  0
 12 14  1  0  0  0  0
 12 15  2  0  0  0  0
 12 18  1  0  0  0  0
 13 18  2  0  0  0  0
 13 19  1  0  0  0  0
 14 16  1  0  0  0  0
 14 46  1  0  0  0  0
 14 47  1  0  0  0  0
 15 17  1  0  0  0  0
 15 20  1  0  0  0  0
 16 17  2  0  0  0  0
 16 21  1  0  0  0  0
 18 48  1  0  0  0  0
 19 20  2  0  0  0  0
 19 49  1  0  0  0  0
 20 50  1  0  0  0  0
 21 23  1  0  0  0  0
 22 51  1  0  0  0  0
 22 52  1  0  0  0  0
 22 53  1  0  0  0  0
 23 24  1  0  0  0  0
 23 25  2  0  0  0  0
 24 26  2  0  0  0  0
 24 55  1  0  0  0  0
 25 56  1  0  0  0  0
 26 27  1  0  0  0  0
 27 28  3  0  0  0  0
 28 29  1  0  0  0  0
 29 57  1  0  0  0  0
 29 58  1  0  0  0  0
 30 31  2  0  0  0  0
 30 32  1  0  0  0  0
 31 33  1  0  0  0  0
 31 59  1  0  0  0  0
 32 34  2  0  0  0  0
 32 60  1  0  0  0  0
 33 35  2  0  0  0  0
 33 61  1  0  0  0  0
 34 35  1  0  0  0  0
 34 62  1  0  0  0  0
 35 63  1  0  0  0  0
M  END
> <PUBCHEM_COMPOUND_CID>
16220354

> <PUBCHEM_COMPOUND_CANONICALIZED>
1

> <PUBCHEM_CACTVS_COMPLEXITY>
767

> <PUBCHEM_CACTVS_HBOND_ACCEPTOR>
5

> <PUBCHEM_CACTVS_HBOND_DONOR>
1

> <PUBCHEM_CACTVS_ROTATABLE_BOND>
6

> <PUBCHEM_CACTVS_SUBSKEYS>
AAADceB7oABAAAAAAAAAAAAAAAAAAeJEAAA8YIAAAAAWAGAB9AAAHgQYAAAADAzl3gayh5NjBAjmEyRiQAiTDIAgKBBYuTguTJgMZqKk8duWvCjkyBGo6AeQwMAOwAACAAAQAACAAAQAACAAASAACQAAAA==

> <PUBCHEM_IUPAC_OPENEYE_NAME>
6-[(4-methylpiperazin-1-yl)methyl]-3-[5-(3-phenoxyprop-1-ynyl)-3-thienyl]-1,4-dihydroindeno[1,2-c]pyrazole

> <PUBCHEM_IUPAC_CAS_NAME>
6-[(4-methyl-1-piperazinyl)methyl]-3-[5-(3-phenoxyprop-1-ynyl)-3-thiophenyl]-1,4-dihydroindeno[1,2-c]pyrazole

> <PUBCHEM_IUPAC_NAME_MARKUP>
6-[(4-methylpiperazin-1-yl)methyl]-3-[5-(3-phenoxyprop-1-ynyl)thiophen-3-yl]-1,4-dihydroindeno[1,2-c]pyrazole

> <PUBCHEM_IUPAC_NAME>
6-[(4-methylpiperazin-1-yl)methyl]-3-[5-(3-phenoxyprop-1-ynyl)thiophen-3-yl]-1,4-dihydroindeno[1,2-c]pyrazole

> <PUBCHEM_IUPAC_SYSTEMATIC_NAME>
6-[(4-methylpiperazin-1-yl)methyl]-3-[5-(3-phenoxyprop-1-ynyl)thiophen-3-yl]-1,4-dihydroindeno[1,2-c]pyrazole

> <PUBCHEM_IUPAC_TRADITIONAL_NAME>
6-[(4-methylpiperazino)methyl]-3-[5-(3-phenoxyprop-1-ynyl)-3-thienyl]-1,4-dihydroindeno[1,2-c]pyrazole

> <PUBCHEM_IUPAC_INCHI>
InChI=1S/C29H28N4OS/c1-32-11-13-33(14-12-32)19-21-9-10-26-22(16-21)18-27-28(30-31-29(26)27)23-17-25(35-20-23)8-5-15-34-24-6-3-2-4-7-24/h2-4,6-7,9-10,16-17,20H,11-15,18-19H2,1H3,(H,30,31)

> <PUBCHEM_IUPAC_INCHIKEY>
JPKSISIJPSXDLA-UHFFFAOYSA-N

> <PUBCHEM_XLOGP3_AA>
4.8

> <PUBCHEM_EXACT_MASS>
480.19838270

> <PUBCHEM_MOLECULAR_FORMULA>
C29H28N4OS

> <PUBCHEM_MOLECULAR_WEIGHT>
480.6

> <PUBCHEM_SMILES>
CN1CCN(CC1)CC2=CC3=C(C=C2)C4=C(C3)C(=NN4)C5=CSC(=C5)C#CCOC6=CC=CC=C6

> <PUBCHEM_OPENEYE_CAN_SMILES>
CN1CCN(CC1)CC2=CC3=C(C=C2)C4=C(C3)C(=NN4)C5=CSC(=C5)C#CCOC6=CC=CC=C6

> <PUBCHEM_OPENEYE_ISO_SMILES>
CN1CCN(CC1)CC2=CC3=C(C=C2)C4=C(C3)C(=NN4)C5=CSC(=C5)C#CCOC6=CC=CC=C6

> <PUBCHEM_CACTVS_TPSA>
72.6

> <PUBCHEM_MONOISOTOPIC_WEIGHT>
480.19838270

> <PUBCHEM_TOTAL_CHARGE>
0

> <PUBCHEM_HEAVY_ATOM_COUNT>
35

> <PUBCHEM_ATOM_DEF_STEREO_COUNT>
0

> <PUBCHEM_ATOM_UDEF_STEREO_COUNT>
0

> <PUBCHEM_BOND_DEF_STEREO_COUNT>
0

> <PUBCHEM_BOND_UDEF_STEREO_COUNT>
0

> <PUBCHEM_ISOTOPIC_ATOM_COUNT>
0

> <PUBCHEM_COMPONENT_COUNT>
1

> <PUBCHEM_CACTVS_TAUTO_COUNT>
-1

> <PUBCHEM_COORDINATE_TYPE>
1
5
255

> <PUBCHEM_BONDANNOTATIONS>
1  25  8
1  26  8
12  15  8
12  18  8
13  18  8
13  19  8
15  20  8
16  17  8
16  21  8
19  20  8
23  24  8
23  25  8
24  26  8
30  31  8
30  32  8
31  33  8
32  34  8
33  35  8
34  35  8
5  17  8
5  6  8
6  21  8

$$$$
