9916282
  -OEChem-03202504312D

 74 78  0     0  0  0  0  0  0999 V2000
   12.1259   -2.0644    0.0000 S   0  0  0  0  0  0  0  0  0  0  0  0
   15.6783   -6.8940    0.0000 F   0  0  0  0  0  0  0  0  0  0  0  0
    2.5369    6.5840    0.0000 O   0  0  0  0  0  0  0  0  0  0  0  0
    6.8671    1.0840    0.0000 O   0  0  0  0  0  0  0  0  0  0  0  0
    6.8671   -0.9160    0.0000 O   0  0  0  0  0  0  0  0  0  0  0  0
   13.9432   -4.4468    0.0000 O   0  0  0  0  0  0  0  0  0  0  0  0
    5.1350    4.0840    0.0000 N   0  0  0  0  0  0  0  0  0  0  0  0
   10.3591    1.1187    0.0000 N   0  0  0  0  0  0  0  0  0  0  0  0
   10.3475   -1.9506    0.0000 N   0  0  0  0  0  0  0  0  0  0  0  0
   11.2651   -0.4368    0.0000 N   0  0  0  0  0  0  0  0  0  0  0  0
   11.3007   -3.4562    0.0000 N   0  0  0  0  0  0  0  0  0  0  0  0
   15.3561   -3.4450    0.0000 N   0  0  0  0  0  0  0  0  0  0  0  0
    3.4030    5.0840    0.0000 C   0  0  0  0  0  0  0  0  0  0  0  0
    4.2690    5.5840    0.0000 C   0  0  0  0  0  0  0  0  0  0  0  0
    3.4030    4.0840    0.0000 C   0  0  0  0  0  0  0  0  0  0  0  0
    5.1350    5.0840    0.0000 C   0  0  0  0  0  0  0  0  0  0  0  0
    4.2690    3.5840    0.0000 C   0  0  0  0  0  0  0  0  0  0  0  0
    6.0010    3.5840    0.0000 C   0  0  0  0  0  0  0  0  0  0  0  0
    2.5369    5.5840    0.0000 C   0  0  0  0  0  0  0  0  0  0  0  0
    6.0010    2.5840    0.0000 C   0  0  0  0  0  0  0  0  0  0  0  0
    6.8671    2.0840    0.0000 C   0  0  0  0  0  0  0  0  0  0  0  0
    7.7331    0.5840    0.0000 C   0  0  0  0  0  0  0  0  0  0  0  0
    7.7331   -0.4160    0.0000 C   0  0  0  0  0  0  0  0  0  0  0  0
    8.5991    1.0840    0.0000 C   0  0  0  0  0  0  0  0  0  0  0  0
    9.4651    0.5840    0.0000 C   0  0  0  0  0  0  0  0  0  0  0  0
    9.4651   -0.4160    0.0000 C   0  0  0  0  0  0  0  0  0  0  0  0
    8.5991   -0.9160    0.0000 C   0  0  0  0  0  0  0  0  0  0  0  0
   10.3591   -0.9506    0.0000 C   0  0  0  0  0  0  0  0  0  0  0  0
   11.2651    0.6048    0.0000 C   0  0  0  0  0  0  0  0  0  0  0  0
    6.8671   -1.9160    0.0000 C   0  0  0  0  0  0  0  0  0  0  0  0
   11.2077   -2.4606    0.0000 C   0  0  0  0  0  0  0  0  0  0  0  0
   12.7864   -2.8152    0.0000 C   0  0  0  0  0  0  0  0  0  0  0  0
   13.7820   -2.7222    0.0000 C   0  0  0  0  0  0  0  0  0  0  0  0
   12.2764   -3.6754    0.0000 C   0  0  0  0  0  0  0  0  0  0  0  0
   14.3604   -3.5380    0.0000 C   0  0  0  0  0  0  0  0  0  0  0  0
   15.9345   -4.2607    0.0000 C   0  0  0  0  0  0  0  0  0  0  0  0
   15.5172   -5.1695    0.0000 C   0  0  0  0  0  0  0  0  0  0  0  0
   16.9302   -4.1677    0.0000 C   0  0  0  0  0  0  0  0  0  0  0  0
   16.0956   -5.9852    0.0000 C   0  0  0  0  0  0  0  0  0  0  0  0
   17.5085   -4.9835    0.0000 C   0  0  0  0  0  0  0  0  0  0  0  0
   17.0913   -5.8922    0.0000 C   0  0  0  0  0  0  0  0  0  0  0  0
    3.4030    5.7040    0.0000 H   0  0  0  0  0  0  0  0  0  0  0  0
    4.6675    6.0590    0.0000 H   0  0  0  0  0  0  0  0  0  0  0  0
    3.8705    6.0590    0.0000 H   0  0  0  0  0  0  0  0  0  0  0  0
    2.7924    4.1917    0.0000 H   0  0  0  0  0  0  0  0  0  0  0  0
    3.1909    3.5014    0.0000 H   0  0  0  0  0  0  0  0  0  0  0  0
    5.7456    4.9764    0.0000 H   0  0  0  0  0  0  0  0  0  0  0  0
    5.3471    5.6666    0.0000 H   0  0  0  0  0  0  0  0  0  0  0  0
    3.8705    3.1091    0.0000 H   0  0  0  0  0  0  0  0  0  0  0  0
    4.6675    3.1091    0.0000 H   0  0  0  0  0  0  0  0  0  0  0  0
    6.6116    3.4764    0.0000 H   0  0  0  0  0  0  0  0  0  0  0  0
    6.2131    4.1666    0.0000 H   0  0  0  0  0  0  0  0  0  0  0  0
    1.9264    5.6917    0.0000 H   0  0  0  0  0  0  0  0  0  0  0  0
    2.3249    5.0014    0.0000 H   0  0  0  0  0  0  0  0  0  0  0  0
    5.3905    2.6917    0.0000 H   0  0  0  0  0  0  0  0  0  0  0  0
    5.7890    2.0014    0.0000 H   0  0  0  0  0  0  0  0  0  0  0  0
    7.4776    1.9764    0.0000 H   0  0  0  0  0  0  0  0  0  0  0  0
    7.0791    2.6666    0.0000 H   0  0  0  0  0  0  0  0  0  0  0  0
    2.0000    6.8940    0.0000 H   0  0  0  0  0  0  0  0  0  0  0  0
    8.5991    1.7040    0.0000 H   0  0  0  0  0  0  0  0  0  0  0  0
    8.5991   -1.5360    0.0000 H   0  0  0  0  0  0  0  0  0  0  0  0
    9.8070   -2.2543    0.0000 H   0  0  0  0  0  0  0  0  0  0  0  0
   11.8009    0.9169    0.0000 H   0  0  0  0  0  0  0  0  0  0  0  0
    6.2471   -1.9160    0.0000 H   0  0  0  0  0  0  0  0  0  0  0  0
    6.8671   -2.5360    0.0000 H   0  0  0  0  0  0  0  0  0  0  0  0
    7.4871   -1.9160    0.0000 H   0  0  0  0  0  0  0  0  0  0  0  0
   14.3424   -2.4569    0.0000 H   0  0  0  0  0  0  0  0  0  0  0  0
   13.6181   -2.1243    0.0000 H   0  0  0  0  0  0  0  0  0  0  0  0
   12.5220   -4.2447    0.0000 H   0  0  0  0  0  0  0  0  0  0  0  0
   15.6148   -2.8815    0.0000 H   0  0  0  0  0  0  0  0  0  0  0  0
   14.8999   -5.2272    0.0000 H   0  0  0  0  0  0  0  0  0  0  0  0
   17.1889   -3.6042    0.0000 H   0  0  0  0  0  0  0  0  0  0  0  0
   18.1259   -4.9258    0.0000 H   0  0  0  0  0  0  0  0  0  0  0  0
   17.4499   -6.3980    0.0000 H   0  0  0  0  0  0  0  0  0  0  0  0
  1 31  1  0  0  0  0
  1 32  1  0  0  0  0
  2 39  1  0  0  0  0
  3 19  1  0  0  0  0
  3 59  1  0  0  0  0
  4 21  1  0  0  0  0
  4 22  1  0  0  0  0
  5 23  1  0  0  0  0
  5 30  1  0  0  0  0
  6 35  2  0  0  0  0
  7 16  1  0  0  0  0
  7 17  1  0  0  0  0
  7 18  1  0  0  0  0
  8 25  1  0  0  0  0
  8 29  2  0  0  0  0
  9 28  1  0  0  0  0
  9 31  1  0  0  0  0
  9 62  1  0  0  0  0
 10 28  2  0  0  0  0
 10 29  1  0  0  0  0
 11 31  2  0  0  0  0
 11 34  1  0  0  0  0
 12 35  1  0  0  0  0
 12 36  1  0  0  0  0
 12 70  1  0  0  0  0
 13 14  1  0  0  0  0
 13 15  1  0  0  0  0
 13 19  1  0  0  0  0
 13 42  1  0  0  0  0
 14 16  1  0  0  0  0
 14 43  1  0  0  0  0
 14 44  1  0  0  0  0
 15 17  1  0  0  0  0
 15 45  1  0  0  0  0
 15 46  1  0  0  0  0
 16 47  1  0  0  0  0
 16 48  1  0  0  0  0
 17 49  1  0  0  0  0
 17 50  1  0  0  0  0
 18 20  1  0  0  0  0
 18 51  1  0  0  0  0
 18 52  1  0  0  0  0
 19 53  1  0  0  0  0
 19 54  1  0  0  0  0
 20 21  1  0  0  0  0
 20 55  1  0  0  0  0
 20 56  1  0  0  0  0
 21 57  1  0  0  0  0
 21 58  1  0  0  0  0
 22 23  2  0  0  0  0
 22 24  1  0  0  0  0
 23 27  1  0  0  0  0
 24 25  2  0  0  0  0
 24 60  1  0  0  0  0
 25 26  1  0  0  0  0
 26 27  2  0  0  0  0
 26 28  1  0  0  0  0
 27 61  1  0  0  0  0
 29 63  1  0  0  0  0
 30 64  1  0  0  0  0
 30 65  1  0  0  0  0
 30 66  1  0  0  0  0
 32 33  1  0  0  0  0
 32 34  2  0  0  0  0
 33 35  1  0  0  0  0
 33 67  1  0  0  0  0
 33 68  1  0  0  0  0
 34 69  1  0  0  0  0
 36 37  2  0  0  0  0
 36 38  1  0  0  0  0
 37 39  1  0  0  0  0
 37 71  1  0  0  0  0
 38 40  2  0  0  0  0
 38 72  1  0  0  0  0
 39 41  2  0  0  0  0
 40 41  1  0  0  0  0
 40 73  1  0  0  0  0
 41 74  1  0  0  0  0
M  END
> <PUBCHEM_COMPOUND_CID>
9916282

> <PUBCHEM_COMPOUND_CANONICALIZED>
1

> <PUBCHEM_CACTVS_COMPLEXITY>
811

> <PUBCHEM_CACTVS_HBOND_ACCEPTOR>
11

> <PUBCHEM_CACTVS_HBOND_DONOR>
3

> <PUBCHEM_CACTVS_ROTATABLE_BOND>
12

> <PUBCHEM_CACTVS_SUBSKEYS>
AAADcfB7uQBAAAAAAAAAAAAAAAAAAWAAAAA8eIEAAAAAAACx/AAAHwQQCAAADQzh3g4/9/fIFgisAzd3dACC+KlxKrlJ2C0+7JiNPrLk/duGfCru1BvK6Ce00BMOIEABAgACQABAgAIEAASAAAAAAAAAAA==

> <PUBCHEM_IUPAC_OPENEYE_NAME>
N-(3-fluorophenyl)-2-[2-[[7-[3-[4-(hydroxymethyl)-1-piperidyl]propoxy]-6-methoxy-quinazolin-4-yl]amino]thiazol-5-yl]acetamide

> <PUBCHEM_IUPAC_CAS_NAME>
N-(3-fluorophenyl)-2-[2-[[7-[3-[4-(hydroxymethyl)-1-piperidinyl]propoxy]-6-methoxy-4-quinazolinyl]amino]-5-thiazolyl]acetamide

> <PUBCHEM_IUPAC_NAME_MARKUP>
<I>N</I>-(3-fluorophenyl)-2-[2-[[7-[3-[4-(hydroxymethyl)piperidin-1-yl]propoxy]-6-methoxyquinazolin-4-yl]amino]-1,3-thiazol-5-yl]acetamide

> <PUBCHEM_IUPAC_NAME>
N-(3-fluorophenyl)-2-[2-[[7-[3-[4-(hydroxymethyl)piperidin-1-yl]propoxy]-6-methoxyquinazolin-4-yl]amino]-1,3-thiazol-5-yl]acetamide

> <PUBCHEM_IUPAC_SYSTEMATIC_NAME>
N-(3-fluorophenyl)-2-[2-[[7-[3-[4-(hydroxymethyl)piperidin-1-yl]propoxy]-6-methoxy-quinazolin-4-yl]amino]-1,3-thiazol-5-yl]ethanamide

> <PUBCHEM_IUPAC_TRADITIONAL_NAME>
N-(3-fluorophenyl)-2-[2-[[6-methoxy-7-[3-(4-methylolpiperidino)propoxy]quinazolin-4-yl]amino]thiazol-5-yl]acetamide

> <PUBCHEM_IUPAC_INCHI>
InChI=1S/C29H33FN6O4S/c1-39-25-14-23-24(15-26(25)40-11-3-8-36-9-6-19(17-37)7-10-36)32-18-33-28(23)35-29-31-16-22(41-29)13-27(38)34-21-5-2-4-20(30)12-21/h2,4-5,12,14-16,18-19,37H,3,6-11,13,17H2,1H3,(H,34,38)(H,31,32,33,35)

> <PUBCHEM_IUPAC_INCHIKEY>
QNJAKUMXJFWQOG-UHFFFAOYSA-N

> <PUBCHEM_XLOGP3_AA>
4.1

> <PUBCHEM_EXACT_MASS>
580.22680289

> <PUBCHEM_MOLECULAR_FORMULA>
C29H33FN6O4S

> <PUBCHEM_MOLECULAR_WEIGHT>
580.7

> <PUBCHEM_SMILES>
COC1=C(C=C2C(=C1)C(=NC=N2)NC3=NC=C(S3)CC(=O)NC4=CC(=CC=C4)F)OCCCN5CCC(CC5)CO

> <PUBCHEM_OPENEYE_CAN_SMILES>
COC1=C(C=C2C(=C1)C(=NC=N2)NC3=NC=C(S3)CC(=O)NC4=CC(=CC=C4)F)OCCCN5CCC(CC5)CO

> <PUBCHEM_OPENEYE_ISO_SMILES>
COC1=C(C=C2C(=C1)C(=NC=N2)NC3=NC=C(S3)CC(=O)NC4=CC(=CC=C4)F)OCCCN5CCC(CC5)CO

> <PUBCHEM_CACTVS_TPSA>
150

> <PUBCHEM_MONOISOTOPIC_WEIGHT>
580.22680289

> <PUBCHEM_TOTAL_CHARGE>
0

> <PUBCHEM_HEAVY_ATOM_COUNT>
41

> <PUBCHEM_ATOM_DEF_STEREO_COUNT>
0

> <PUBCHEM_ATOM_UDEF_STEREO_COUNT>
0

> <PUBCHEM_BOND_DEF_STEREO_COUNT>
0

> <PUBCHEM_BOND_UDEF_STEREO_COUNT>
0

> <PUBCHEM_ISOTOPIC_ATOM_COUNT>
0

> <PUBCHEM_COMPONENT_COUNT>
1

> <PUBCHEM_CACTVS_TAUTO_COUNT>
-1

> <PUBCHEM_COORDINATE_TYPE>
1
5
255

> <PUBCHEM_BONDANNOTATIONS>
1  31  8
1  32  8
10  28  8
10  29  8
11  31  8
11  34  8
22  23  8
22  24  8
23  27  8
24  25  8
25  26  8
26  27  8
26  28  8
32  34  8
36  37  8
36  38  8
37  39  8
38  40  8
39  41  8
40  41  8
8  25  8
8  29  8

$$$$
