49830790
  -OEChem-03202503472D

 28 30  0     0  0  0  0  0  0999 V2000
    3.7320    3.2015    0.0000 Br  0  0  0  0  0  0  0  0  0  0  0  0
    5.5443   -2.6032    0.0000 S   0  0  0  0  0  0  0  0  0  0  0  0
    2.0000    0.2015    0.0000 F   0  0  0  0  0  0  0  0  0  0  0  0
    2.0000    2.2015    0.0000 F   0  0  0  0  0  0  0  0  0  0  0  0
    7.6279   -0.9325    0.0000 O   0  0  0  0  0  0  0  0  0  0  0  0
    2.8660   -2.2985    0.0000 N   0  0  0  0  0  0  0  0  0  0  0  0
    7.6279   -2.6645    0.0000 N   0  0  0  0  0  0  0  0  0  0  0  0
    4.5981   -1.2985    0.0000 C   0  0  0  0  0  0  0  0  0  0  0  0
    3.7320   -0.7985    0.0000 C   0  0  0  0  0  0  0  0  0  0  0  0
    4.5981   -2.2985    0.0000 C   0  0  0  0  0  0  0  0  0  0  0  0
    3.7320    0.2015    0.0000 C   0  0  0  0  0  0  0  0  0  0  0  0
    5.5443   -0.9938    0.0000 C   0  0  0  0  0  0  0  0  0  0  0  0
    6.1279   -1.7985    0.0000 C   0  0  0  0  0  0  0  0  0  0  0  0
    2.8660   -1.2985    0.0000 C   0  0  0  0  0  0  0  0  0  0  0  0
    3.7320   -2.7985    0.0000 C   0  0  0  0  0  0  0  0  0  0  0  0
    2.8660    0.7015    0.0000 C   0  0  0  0  0  0  0  0  0  0  0  0
    4.5981    0.7015    0.0000 C   0  0  0  0  0  0  0  0  0  0  0  0
    2.8660    1.7015    0.0000 C   0  0  0  0  0  0  0  0  0  0  0  0
    4.5981    1.7015    0.0000 C   0  0  0  0  0  0  0  0  0  0  0  0
    3.7320    2.2015    0.0000 C   0  0  0  0  0  0  0  0  0  0  0  0
    7.1279   -1.7985    0.0000 C   0  0  0  0  0  0  0  0  0  0  0  0
    5.7369   -0.4045    0.0000 H   0  0  0  0  0  0  0  0  0  0  0  0
    2.3291   -0.9885    0.0000 H   0  0  0  0  0  0  0  0  0  0  0  0
    3.7320   -3.4185    0.0000 H   0  0  0  0  0  0  0  0  0  0  0  0
    5.1350    0.3915    0.0000 H   0  0  0  0  0  0  0  0  0  0  0  0
    5.1350    2.0115    0.0000 H   0  0  0  0  0  0  0  0  0  0  0  0
    8.2479   -2.6645    0.0000 H   0  0  0  0  0  0  0  0  0  0  0  0
    7.3179   -3.2015    0.0000 H   0  0  0  0  0  0  0  0  0  0  0  0
  1 20  1  0  0  0  0
  2 10  1  0  0  0  0
  2 13  1  0  0  0  0
  3 16  1  0  0  0  0
  4 18  1  0  0  0  0
  5 21  2  0  0  0  0
  6 14  1  0  0  0  0
  6 15  2  0  0  0  0
  7 21  1  0  0  0  0
  7 27  1  0  0  0  0
  7 28  1  0  0  0  0
  8  9  1  0  0  0  0
  8 10  2  0  0  0  0
  8 12  1  0  0  0  0
  9 11  1  0  0  0  0
  9 14  2  0  0  0  0
 10 15  1  0  0  0  0
 11 16  2  0  0  0  0
 11 17  1  0  0  0  0
 12 13  2  0  0  0  0
 12 22  1  0  0  0  0
 13 21  1  0  0  0  0
 14 23  1  0  0  0  0
 15 24  1  0  0  0  0
 16 18  1  0  0  0  0
 17 19  2  0  0  0  0
 17 25  1  0  0  0  0
 18 20  2  0  0  0  0
 19 20  1  0  0  0  0
 19 26  1  0  0  0  0
M  END
> <PUBCHEM_COMPOUND_CID>
49830790

> <PUBCHEM_COMPOUND_CANONICALIZED>
1

> <PUBCHEM_CACTVS_COMPLEXITY>
416

> <PUBCHEM_CACTVS_HBOND_ACCEPTOR>
5

> <PUBCHEM_CACTVS_HBOND_DONOR>
1

> <PUBCHEM_CACTVS_ROTATABLE_BOND>
2

> <PUBCHEM_CACTVS_SUBSKEYS>
AAADcYBzIYBAEAAAAAAAAAAAAAAAASAAAAA8QAAAAAAAAFgB/AAAHwRQAAABrADB2gw8gdJIEAisAjF3VACDoKA1CDRI2D0oRPgIIHLglJGEIQhggADoy5cYiMCOggAAAAAAAAAEAAAAAAAAAAAAAAAAAA==

> <PUBCHEM_IUPAC_OPENEYE_NAME>
4-(4-bromo-2,3-difluoro-phenyl)thieno[2,3-c]pyridine-2-carboxamide

> <PUBCHEM_IUPAC_CAS_NAME>
4-(4-bromo-2,3-difluorophenyl)-2-thieno[2,3-c]pyridinecarboxamide

> <PUBCHEM_IUPAC_NAME_MARKUP>
4-(4-bromo-2,3-difluorophenyl)thieno[2,3-c]pyridine-2-carboxamide

> <PUBCHEM_IUPAC_NAME>
4-(4-bromo-2,3-difluorophenyl)thieno[2,3-c]pyridine-2-carboxamide

> <PUBCHEM_IUPAC_SYSTEMATIC_NAME>
4-[4-bromanyl-2,3-bis(fluoranyl)phenyl]thieno[2,3-c]pyridine-2-carboxamide

> <PUBCHEM_IUPAC_TRADITIONAL_NAME>
4-(4-bromo-2,3-difluoro-phenyl)thieno[2,3-c]pyridine-2-carboxamide

> <PUBCHEM_IUPAC_INCHI>
InChI=1S/C14H7BrF2N2OS/c15-9-2-1-6(12(16)13(9)17)8-4-19-5-11-7(8)3-10(21-11)14(18)20/h1-5H,(H2,18,20)

> <PUBCHEM_IUPAC_INCHIKEY>
AWJPVXSHMIELNJ-UHFFFAOYSA-N

> <PUBCHEM_XLOGP3_AA>
3.6

> <PUBCHEM_EXACT_MASS>
367.94305

> <PUBCHEM_MOLECULAR_FORMULA>
C14H7BrF2N2OS

> <PUBCHEM_MOLECULAR_WEIGHT>
369.19

> <PUBCHEM_SMILES>
C1=CC(=C(C(=C1C2=CN=CC3=C2C=C(S3)C(=O)N)F)F)Br

> <PUBCHEM_OPENEYE_CAN_SMILES>
C1=CC(=C(C(=C1C2=CN=CC3=C2C=C(S3)C(=O)N)F)F)Br

> <PUBCHEM_OPENEYE_ISO_SMILES>
C1=CC(=C(C(=C1C2=CN=CC3=C2C=C(S3)C(=O)N)F)F)Br

> <PUBCHEM_CACTVS_TPSA>
84.2

> <PUBCHEM_MONOISOTOPIC_WEIGHT>
367.94305

> <PUBCHEM_TOTAL_CHARGE>
0

> <PUBCHEM_HEAVY_ATOM_COUNT>
21

> <PUBCHEM_ATOM_DEF_STEREO_COUNT>
0

> <PUBCHEM_ATOM_UDEF_STEREO_COUNT>
0

> <PUBCHEM_BOND_DEF_STEREO_COUNT>
0

> <PUBCHEM_BOND_UDEF_STEREO_COUNT>
0

> <PUBCHEM_ISOTOPIC_ATOM_COUNT>
0

> <PUBCHEM_COMPONENT_COUNT>
1

> <PUBCHEM_CACTVS_TAUTO_COUNT>
-1

> <PUBCHEM_COORDINATE_TYPE>
1
5
255

> <PUBCHEM_BONDANNOTATIONS>
10  15  8
11  16  8
11  17  8
12  13  8
16  18  8
17  19  8
18  20  8
19  20  8
2  10  8
2  13  8
6  14  8
6  15  8
8  10  8
8  12  8
8  9  8
9  14  8

$$$$
