9863367
  -OEChem-03202507322D

 46 49  0     0  0  0  0  0  0999 V2000
    2.0000    0.5823    0.0000 F   0  0  0  0  0  0  0  0  0  0  0  0
    8.3453   -1.7694    0.0000 O   0  0  0  0  0  0  0  0  0  0  0  0
    7.4223    1.8184    0.0000 N   0  0  0  0  0  0  0  0  0  0  0  0
   10.2754    0.8913    0.0000 N   0  0  0  0  0  0  0  0  0  0  0  0
    6.1132    2.7694    0.0000 N   0  0  0  0  0  0  0  0  0  0  0  0
    7.4793   -0.2694    0.0000 N   0  0  0  0  0  0  0  0  0  0  0  0
    6.6132   -1.7694    0.0000 N   0  0  0  0  0  0  0  0  0  0  0  0
    8.3733    1.5094    0.0000 C   0  0  0  0  0  0  0  0  0  0  0  0
    9.1165    2.1785    0.0000 C   0  0  0  0  0  0  0  0  0  0  0  0
    8.5812    0.5312    0.0000 C   0  0  0  0  0  0  0  0  0  0  0  0
   10.0675    1.8695    0.0000 C   0  0  0  0  0  0  0  0  0  0  0  0
    9.5323    0.2222    0.0000 C   0  0  0  0  0  0  0  0  0  0  0  0
    6.6132    1.2306    0.0000 C   0  0  0  0  0  0  0  0  0  0  0  0
    7.1132    2.7694    0.0000 C   0  0  0  0  0  0  0  0  0  0  0  0
    5.8042    1.8184    0.0000 C   0  0  0  0  0  0  0  0  0  0  0  0
    6.6132    0.2306    0.0000 C   0  0  0  0  0  0  0  0  0  0  0  0
    4.8532    1.5094    0.0000 C   0  0  0  0  0  0  0  0  0  0  0  0
    5.7472   -0.2694    0.0000 C   0  0  0  0  0  0  0  0  0  0  0  0
    4.1100    2.1785    0.0000 C   0  0  0  0  0  0  0  0  0  0  0  0
    4.6453    0.5312    0.0000 C   0  0  0  0  0  0  0  0  0  0  0  0
    5.7472   -1.2694    0.0000 C   0  0  0  0  0  0  0  0  0  0  0  0
    3.1590    1.8695    0.0000 C   0  0  0  0  0  0  0  0  0  0  0  0
    3.6942    0.2222    0.0000 C   0  0  0  0  0  0  0  0  0  0  0  0
    7.4793   -1.2694    0.0000 C   0  0  0  0  0  0  0  0  0  0  0  0
    2.9511    0.8913    0.0000 C   0  0  0  0  0  0  0  0  0  0  0  0
    8.3453   -2.7694    0.0000 C   0  0  0  0  0  0  0  0  0  0  0  0
    8.2444    2.1158    0.0000 H   0  0  0  0  0  0  0  0  0  0  0  0
    9.4075    2.7259    0.0000 H   0  0  0  0  0  0  0  0  0  0  0  0
    8.6279    2.5602    0.0000 H   0  0  0  0  0  0  0  0  0  0  0  0
    7.9616    0.5096    0.0000 H   0  0  0  0  0  0  0  0  0  0  0  0
    8.4949   -0.0828    0.0000 H   0  0  0  0  0  0  0  0  0  0  0  0
   10.6871    1.8911    0.0000 H   0  0  0  0  0  0  0  0  0  0  0  0
   10.1538    2.4834    0.0000 H   0  0  0  0  0  0  0  0  0  0  0  0
    9.2412   -0.3252    0.0000 H   0  0  0  0  0  0  0  0  0  0  0  0
   10.0209   -0.1595    0.0000 H   0  0  0  0  0  0  0  0  0  0  0  0
   10.8651    0.6997    0.0000 H   0  0  0  0  0  0  0  0  0  0  0  0
    7.4777    3.2710    0.0000 H   0  0  0  0  0  0  0  0  0  0  0  0
    5.2103    0.0406    0.0000 H   0  0  0  0  0  0  0  0  0  0  0  0
    4.2389    2.7849    0.0000 H   0  0  0  0  0  0  0  0  0  0  0  0
    5.1060    0.1163    0.0000 H   0  0  0  0  0  0  0  0  0  0  0  0
    5.2103   -1.5794    0.0000 H   0  0  0  0  0  0  0  0  0  0  0  0
    2.6982    2.2843    0.0000 H   0  0  0  0  0  0  0  0  0  0  0  0
    3.5653   -0.3843    0.0000 H   0  0  0  0  0  0  0  0  0  0  0  0
    7.7253   -2.7694    0.0000 H   0  0  0  0  0  0  0  0  0  0  0  0
    8.3453   -3.3894    0.0000 H   0  0  0  0  0  0  0  0  0  0  0  0
    8.9653   -2.7694    0.0000 H   0  0  0  0  0  0  0  0  0  0  0  0
  1 25  1  0  0  0  0
  2 24  1  0  0  0  0
  2 26  1  0  0  0  0
  3  8  1  0  0  0  0
  3 13  1  0  0  0  0
  3 14  1  0  0  0  0
  4 11  1  0  0  0  0
  4 12  1  0  0  0  0
  4 36  1  0  0  0  0
  5 14  2  0  0  0  0
  5 15  1  0  0  0  0
  6 16  2  0  0  0  0
  6 24  1  0  0  0  0
  7 21  1  0  0  0  0
  7 24  2  0  0  0  0
  8  9  1  0  0  0  0
  8 10  1  0  0  0  0
  8 27  1  0  0  0  0
  9 11  1  0  0  0  0
  9 28  1  0  0  0  0
  9 29  1  0  0  0  0
 10 12  1  0  0  0  0
 10 30  1  0  0  0  0
 10 31  1  0  0  0  0
 11 32  1  0  0  0  0
 11 33  1  0  0  0  0
 12 34  1  0  0  0  0
 12 35  1  0  0  0  0
 13 15  2  0  0  0  0
 13 16  1  0  0  0  0
 14 37  1  0  0  0  0
 15 17  1  0  0  0  0
 16 18  1  0  0  0  0
 17 19  2  0  0  0  0
 17 20  1  0  0  0  0
 18 21  2  0  0  0  0
 18 38  1  0  0  0  0
 19 22  1  0  0  0  0
 19 39  1  0  0  0  0
 20 23  2  0  0  0  0
 20 40  1  0  0  0  0
 21 41  1  0  0  0  0
 22 25  2  0  0  0  0
 22 42  1  0  0  0  0
 23 25  1  0  0  0  0
 23 43  1  0  0  0  0
 26 44  1  0  0  0  0
 26 45  1  0  0  0  0
 26 46  1  0  0  0  0
M  END
> <PUBCHEM_COMPOUND_CID>
9863367

> <PUBCHEM_COMPOUND_CANONICALIZED>
1

> <PUBCHEM_CACTVS_COMPLEXITY>
442

> <PUBCHEM_CACTVS_HBOND_ACCEPTOR>
6

> <PUBCHEM_CACTVS_HBOND_DONOR>
1

> <PUBCHEM_CACTVS_ROTATABLE_BOND>
4

> <PUBCHEM_CACTVS_SUBSKEYS>
AAADceB7oQAAAAAAAAAAAAAAAAAAAWAAAAA8WIAAAAAAAAAB8AAAHwAQAAAADCjBHg4/kJfMFACgAzRnZACCgC0xEqAJ2KA4dJiIaKLA2dGUJAhokALIyCcQgMAOAAAAAAAAAAAAAAAAAAAAAAAAAAAAAA==

> <PUBCHEM_IUPAC_OPENEYE_NAME>
4-[5-(4-fluorophenyl)-3-(4-piperidyl)imidazol-4-yl]-2-methoxy-pyrimidine

> <PUBCHEM_IUPAC_CAS_NAME>
4-[5-(4-fluorophenyl)-3-(4-piperidinyl)-4-imidazolyl]-2-methoxypyrimidine

> <PUBCHEM_IUPAC_NAME_MARKUP>
4-[5-(4-fluorophenyl)-3-piperidin-4-ylimidazol-4-yl]-2-methoxypyrimidine

> <PUBCHEM_IUPAC_NAME>
4-[5-(4-fluorophenyl)-3-piperidin-4-ylimidazol-4-yl]-2-methoxypyrimidine

> <PUBCHEM_IUPAC_SYSTEMATIC_NAME>
4-[5-(4-fluorophenyl)-3-piperidin-4-yl-imidazol-4-yl]-2-methoxy-pyrimidine

> <PUBCHEM_IUPAC_TRADITIONAL_NAME>
4-[5-(4-fluorophenyl)-3-(4-piperidyl)imidazol-4-yl]-2-methoxy-pyrimidine

> <PUBCHEM_IUPAC_INCHI>
InChI=1S/C19H20FN5O/c1-26-19-22-11-8-16(24-19)18-17(13-2-4-14(20)5-3-13)23-12-25(18)15-6-9-21-10-7-15/h2-5,8,11-12,15,21H,6-7,9-10H2,1H3

> <PUBCHEM_IUPAC_INCHIKEY>
PDTYLGXVBIWRIM-UHFFFAOYSA-N

> <PUBCHEM_XLOGP3_AA>
2.1

> <PUBCHEM_EXACT_MASS>
353.16518844

> <PUBCHEM_MOLECULAR_FORMULA>
C19H20FN5O

> <PUBCHEM_MOLECULAR_WEIGHT>
353.4

> <PUBCHEM_SMILES>
COC1=NC=CC(=N1)C2=C(N=CN2C3CCNCC3)C4=CC=C(C=C4)F

> <PUBCHEM_OPENEYE_CAN_SMILES>
COC1=NC=CC(=N1)C2=C(N=CN2C3CCNCC3)C4=CC=C(C=C4)F

> <PUBCHEM_OPENEYE_ISO_SMILES>
COC1=NC=CC(=N1)C2=C(N=CN2C3CCNCC3)C4=CC=C(C=C4)F

> <PUBCHEM_CACTVS_TPSA>
64.9

> <PUBCHEM_MONOISOTOPIC_WEIGHT>
353.16518844

> <PUBCHEM_TOTAL_CHARGE>
0

> <PUBCHEM_HEAVY_ATOM_COUNT>
26

> <PUBCHEM_ATOM_DEF_STEREO_COUNT>
0

> <PUBCHEM_ATOM_UDEF_STEREO_COUNT>
0

> <PUBCHEM_BOND_DEF_STEREO_COUNT>
0

> <PUBCHEM_BOND_UDEF_STEREO_COUNT>
0

> <PUBCHEM_ISOTOPIC_ATOM_COUNT>
0

> <PUBCHEM_COMPONENT_COUNT>
1

> <PUBCHEM_CACTVS_TAUTO_COUNT>
-1

> <PUBCHEM_COORDINATE_TYPE>
1
5
255

> <PUBCHEM_BONDANNOTATIONS>
13  15  8
16  18  8
17  19  8
17  20  8
18  21  8
19  22  8
20  23  8
22  25  8
23  25  8
3  13  8
3  14  8
5  14  8
5  15  8
6  16  8
6  24  8
7  21  8
7  24  8

$$$$
