49830909
  -OEChem-03202503392D

 43 45  0     0  0  0  0  0  0999 V2000
    2.0000    0.7500    0.0000 Cl  0  0  0  0  0  0  0  0  0  0  0  0
    4.5981    5.2500    0.0000 F   0  0  0  0  0  0  0  0  0  0  0  0
    8.9282    2.7500    0.0000 F   0  0  0  0  0  0  0  0  0  0  0  0
    8.5622    4.1160    0.0000 F   0  0  0  0  0  0  0  0  0  0  0  0
    7.5622    2.3840    0.0000 F   0  0  0  0  0  0  0  0  0  0  0  0
    5.4641    1.7500    0.0000 O   0  0  0  0  0  0  0  0  0  0  0  0
    3.7320   -5.2500    0.0000 O   0  0  0  0  0  0  0  0  0  0  0  0
    3.7320    1.7500    0.0000 N   0  0  0  0  0  0  0  0  0  0  0  0
    4.5981    3.2500    0.0000 N   0  0  0  0  0  0  0  0  0  0  0  0
    4.5981   -2.7500    0.0000 N   0  0  0  0  0  0  0  0  0  0  0  0
    4.5981   -3.7500    0.0000 N   0  0  0  0  0  0  0  0  0  0  0  0
    3.7320   -1.2500    0.0000 C   0  0  0  0  0  0  0  0  0  0  0  0
    3.7320   -2.2500    0.0000 C   0  0  0  0  0  0  0  0  0  0  0  0
    3.7320    0.7500    0.0000 C   0  0  0  0  0  0  0  0  0  0  0  0
    2.8660   -2.7500    0.0000 C   0  0  0  0  0  0  0  0  0  0  0  0
    2.8660   -0.7500    0.0000 C   0  0  0  0  0  0  0  0  0  0  0  0
    4.5981   -0.7500    0.0000 C   0  0  0  0  0  0  0  0  0  0  0  0
    2.8660    0.2500    0.0000 C   0  0  0  0  0  0  0  0  0  0  0  0
    4.5981    0.2500    0.0000 C   0  0  0  0  0  0  0  0  0  0  0  0
    5.4641    3.7500    0.0000 C   0  0  0  0  0  0  0  0  0  0  0  0
    7.1962    3.7500    0.0000 C   0  0  0  0  0  0  0  0  0  0  0  0
    6.3301    3.2500    0.0000 C   0  0  0  0  0  0  0  0  0  0  0  0
    2.8660   -3.7500    0.0000 C   0  0  0  0  0  0  0  0  0  0  0  0
    2.0000   -2.2500    0.0000 C   0  0  0  0  0  0  0  0  0  0  0  0
    4.5981    2.2500    0.0000 C   0  0  0  0  0  0  0  0  0  0  0  0
    5.4641    4.7500    0.0000 C   0  0  0  0  0  0  0  0  0  0  0  0
    7.1962    4.7500    0.0000 C   0  0  0  0  0  0  0  0  0  0  0  0
    6.3301    5.2500    0.0000 C   0  0  0  0  0  0  0  0  0  0  0  0
    3.7320   -4.2500    0.0000 C   0  0  0  0  0  0  0  0  0  0  0  0
    8.0622    3.2500    0.0000 C   0  0  0  0  0  0  0  0  0  0  0  0
    2.3291   -1.0600    0.0000 H   0  0  0  0  0  0  0  0  0  0  0  0
    5.1350   -1.0600    0.0000 H   0  0  0  0  0  0  0  0  0  0  0  0
    5.1350    0.5600    0.0000 H   0  0  0  0  0  0  0  0  0  0  0  0
    3.1951    2.0600    0.0000 H   0  0  0  0  0  0  0  0  0  0  0  0
    6.3301    2.6300    0.0000 H   0  0  0  0  0  0  0  0  0  0  0  0
    2.3291   -4.0600    0.0000 H   0  0  0  0  0  0  0  0  0  0  0  0
    4.0611    3.5600    0.0000 H   0  0  0  0  0  0  0  0  0  0  0  0
    2.3100   -1.7131    0.0000 H   0  0  0  0  0  0  0  0  0  0  0  0
    1.4631   -1.9400    0.0000 H   0  0  0  0  0  0  0  0  0  0  0  0
    1.6900   -2.7869    0.0000 H   0  0  0  0  0  0  0  0  0  0  0  0
    7.7331    5.0600    0.0000 H   0  0  0  0  0  0  0  0  0  0  0  0
    6.3301    5.8700    0.0000 H   0  0  0  0  0  0  0  0  0  0  0  0
    5.1350   -4.0600    0.0000 H   0  0  0  0  0  0  0  0  0  0  0  0
  1 18  1  0  0  0  0
  2 26  1  0  0  0  0
  3 30  1  0  0  0  0
  4 30  1  0  0  0  0
  5 30  1  0  0  0  0
  6 25  2  0  0  0  0
  7 29  2  0  0  0  0
  8 14  1  0  0  0  0
  8 25  1  0  0  0  0
  8 34  1  0  0  0  0
  9 20  1  0  0  0  0
  9 25  1  0  0  0  0
  9 37  1  0  0  0  0
 10 11  1  0  0  0  0
 10 13  2  0  0  0  0
 11 29  1  0  0  0  0
 11 43  1  0  0  0  0
 12 13  1  0  0  0  0
 12 16  2  0  0  0  0
 12 17  1  0  0  0  0
 13 15  1  0  0  0  0
 14 18  2  0  0  0  0
 14 19  1  0  0  0  0
 15 23  2  0  0  0  0
 15 24  1  0  0  0  0
 16 18  1  0  0  0  0
 16 31  1  0  0  0  0
 17 19  2  0  0  0  0
 17 32  1  0  0  0  0
 19 33  1  0  0  0  0
 20 22  1  0  0  0  0
 20 26  2  0  0  0  0
 21 22  2  0  0  0  0
 21 27  1  0  0  0  0
 21 30  1  0  0  0  0
 22 35  1  0  0  0  0
 23 29  1  0  0  0  0
 23 36  1  0  0  0  0
 24 38  1  0  0  0  0
 24 39  1  0  0  0  0
 24 40  1  0  0  0  0
 26 28  1  0  0  0  0
 27 28  2  0  0  0  0
 27 41  1  0  0  0  0
 28 42  1  0  0  0  0
M  END
> <PUBCHEM_COMPOUND_CID>
49830909

> <PUBCHEM_COMPOUND_CANONICALIZED>
1

> <PUBCHEM_CACTVS_COMPLEXITY>
743

> <PUBCHEM_CACTVS_HBOND_ACCEPTOR>
7

> <PUBCHEM_CACTVS_HBOND_DONOR>
3

> <PUBCHEM_CACTVS_ROTATABLE_BOND>
3

> <PUBCHEM_CACTVS_SUBSKEYS>
AAADccB7scAEAAAAAAAAAAAAAAAAAAAAAAAwYIAAAAAAAAABQAAAHwIYAAAADAqBmDgzwILiAACoAyVyUACSAAAhBwAaiAAgZtiIIKLBk5HEIAhonAJIyScQgIAOCAAAYAAAABAQAADAAAAAIAAAAAAAAA==

> <PUBCHEM_IUPAC_OPENEYE_NAME>
1-[2-chloro-4-(4-methyl-6-oxo-1H-pyridazin-3-yl)phenyl]-3-[2-fluoro-5-(trifluoromethyl)phenyl]urea

> <PUBCHEM_IUPAC_CAS_NAME>
1-[2-chloro-4-(4-methyl-6-oxo-1H-pyridazin-3-yl)phenyl]-3-[2-fluoro-5-(trifluoromethyl)phenyl]urea

> <PUBCHEM_IUPAC_NAME_MARKUP>
1-[2-chloro-4-(4-methyl-6-oxo-1<I>H</I>-pyridazin-3-yl)phenyl]-3-[2-fluoro-5-(trifluoromethyl)phenyl]urea

> <PUBCHEM_IUPAC_NAME>
1-[2-chloro-4-(4-methyl-6-oxo-1H-pyridazin-3-yl)phenyl]-3-[2-fluoro-5-(trifluoromethyl)phenyl]urea

> <PUBCHEM_IUPAC_SYSTEMATIC_NAME>
1-[2-chloranyl-4-(4-methyl-6-oxidanylidene-1H-pyridazin-3-yl)phenyl]-3-[2-fluoranyl-5-(trifluoromethyl)phenyl]urea

> <PUBCHEM_IUPAC_TRADITIONAL_NAME>
1-[2-chloro-4-(6-keto-4-methyl-1H-pyridazin-3-yl)phenyl]-3-[2-fluoro-5-(trifluoromethyl)phenyl]urea

> <PUBCHEM_IUPAC_INCHI>
InChI=1S/C19H13ClF4N4O2/c1-9-6-16(29)27-28-17(9)10-2-5-14(12(20)7-10)25-18(30)26-15-8-11(19(22,23)24)3-4-13(15)21/h2-8H,1H3,(H,27,29)(H2,25,26,30)

> <PUBCHEM_IUPAC_INCHIKEY>
NIKNJFKATRPZSL-UHFFFAOYSA-N

> <PUBCHEM_XLOGP3_AA>
3.8

> <PUBCHEM_EXACT_MASS>
440.0663160

> <PUBCHEM_MOLECULAR_FORMULA>
C19H13ClF4N4O2

> <PUBCHEM_MOLECULAR_WEIGHT>
440.8

> <PUBCHEM_SMILES>
CC1=CC(=O)NN=C1C2=CC(=C(C=C2)NC(=O)NC3=C(C=CC(=C3)C(F)(F)F)F)Cl

> <PUBCHEM_OPENEYE_CAN_SMILES>
CC1=CC(=O)NN=C1C2=CC(=C(C=C2)NC(=O)NC3=C(C=CC(=C3)C(F)(F)F)F)Cl

> <PUBCHEM_OPENEYE_ISO_SMILES>
CC1=CC(=O)NN=C1C2=CC(=C(C=C2)NC(=O)NC3=C(C=CC(=C3)C(F)(F)F)F)Cl

> <PUBCHEM_CACTVS_TPSA>
82.6

> <PUBCHEM_MONOISOTOPIC_WEIGHT>
440.0663160

> <PUBCHEM_TOTAL_CHARGE>
0

> <PUBCHEM_HEAVY_ATOM_COUNT>
30

> <PUBCHEM_ATOM_DEF_STEREO_COUNT>
0

> <PUBCHEM_ATOM_UDEF_STEREO_COUNT>
0

> <PUBCHEM_BOND_DEF_STEREO_COUNT>
0

> <PUBCHEM_BOND_UDEF_STEREO_COUNT>
0

> <PUBCHEM_ISOTOPIC_ATOM_COUNT>
0

> <PUBCHEM_COMPONENT_COUNT>
1

> <PUBCHEM_CACTVS_TAUTO_COUNT>
-1

> <PUBCHEM_COORDINATE_TYPE>
1
5
255

> <PUBCHEM_BONDANNOTATIONS>
10  11  8
10  13  8
11  29  8
12  16  8
12  17  8
13  15  8
14  18  8
14  19  8
15  23  8
16  18  8
17  19  8
20  22  8
20  26  8
21  22  8
21  27  8
23  29  8
26  28  8
27  28  8

$$$$
