44406018
  -OEChem-03202505502D

 41 44  0     0  0  0  0  0  0999 V2000
    5.5836   -0.9038    0.0000 S   0  0  0  0  0  0  0  0  0  0  0  0
    3.5000    0.7670    0.0000 O   0  0  0  0  0  0  0  0  0  0  0  0
    3.5000   -0.9651    0.0000 N   0  0  0  0  0  0  0  0  0  0  0  0
    2.5000   -2.6971    0.0000 N   0  0  0  0  0  0  0  0  0  0  0  0
    8.0687   -0.0990    0.0000 N   0  0  0  0  0  0  0  0  0  0  0  0
    7.4809   -0.9081    0.0000 N   0  0  0  0  0  0  0  0  0  0  0  0
    4.0000   -1.8311    0.0000 C   0  0  0  0  0  0  0  0  0  0  0  0
    2.5000   -0.9651    0.0000 C   0  0  0  0  0  0  0  0  0  0  0  0
    3.5000   -2.6971    0.0000 C   0  0  0  0  0  0  0  0  0  0  0  0
    2.0000   -1.8311    0.0000 C   0  0  0  0  0  0  0  0  0  0  0  0
    4.0000   -0.0990    0.0000 C   0  0  0  0  0  0  0  0  0  0  0  0
    2.0000   -3.5631    0.0000 C   0  0  0  0  0  0  0  0  0  0  0  0
    5.0000   -0.0990    0.0000 C   0  0  0  0  0  0  0  0  0  0  0  0
    6.5298    0.4010    0.0000 C   0  0  0  0  0  0  0  0  0  0  0  0
    5.5836    0.7057    0.0000 C   0  0  0  0  0  0  0  0  0  0  0  0
    6.5298   -0.5990    0.0000 C   0  0  0  0  0  0  0  0  0  0  0  0
    7.4809    0.7100    0.0000 C   0  0  0  0  0  0  0  0  0  0  0  0
    7.7899    1.6610    0.0000 C   0  0  0  0  0  0  0  0  0  0  0  0
    7.1208    2.4042    0.0000 C   0  0  0  0  0  0  0  0  0  0  0  0
    8.7680    1.8689    0.0000 C   0  0  0  0  0  0  0  0  0  0  0  0
    7.4298    3.3552    0.0000 C   0  0  0  0  0  0  0  0  0  0  0  0
    9.0771    2.8200    0.0000 C   0  0  0  0  0  0  0  0  0  0  0  0
    8.4079    3.5631    0.0000 C   0  0  0  0  0  0  0  0  0  0  0  0
    4.4750   -2.2296    0.0000 H   0  0  0  0  0  0  0  0  0  0  0  0
    4.4750   -1.4326    0.0000 H   0  0  0  0  0  0  0  0  0  0  0  0
    2.6077   -0.3545    0.0000 H   0  0  0  0  0  0  0  0  0  0  0  0
    1.9174   -0.7530    0.0000 H   0  0  0  0  0  0  0  0  0  0  0  0
    3.3923   -3.3077    0.0000 H   0  0  0  0  0  0  0  0  0  0  0  0
    4.0826   -2.9092    0.0000 H   0  0  0  0  0  0  0  0  0  0  0  0
    1.5250   -1.4326    0.0000 H   0  0  0  0  0  0  0  0  0  0  0  0
    1.5250   -2.2296    0.0000 H   0  0  0  0  0  0  0  0  0  0  0  0
    1.4631   -3.2531    0.0000 H   0  0  0  0  0  0  0  0  0  0  0  0
    1.6900   -4.1001    0.0000 H   0  0  0  0  0  0  0  0  0  0  0  0
    2.5369   -3.8731    0.0000 H   0  0  0  0  0  0  0  0  0  0  0  0
    5.3910    1.2950    0.0000 H   0  0  0  0  0  0  0  0  0  0  0  0
    8.6887   -0.0990    0.0000 H   0  0  0  0  0  0  0  0  0  0  0  0
    6.5143    2.2753    0.0000 H   0  0  0  0  0  0  0  0  0  0  0  0
    9.1829    1.4082    0.0000 H   0  0  0  0  0  0  0  0  0  0  0  0
    7.0149    3.8160    0.0000 H   0  0  0  0  0  0  0  0  0  0  0  0
    9.6835    2.9489    0.0000 H   0  0  0  0  0  0  0  0  0  0  0  0
    8.5995    4.1528    0.0000 H   0  0  0  0  0  0  0  0  0  0  0  0
  1 13  1  0  0  0  0
  1 16  1  0  0  0  0
  2 11  2  0  0  0  0
  3  7  1  0  0  0  0
  3  8  1  0  0  0  0
  3 11  1  0  0  0  0
  4  9  1  0  0  0  0
  4 10  1  0  0  0  0
  4 12  1  0  0  0  0
  5  6  1  0  0  0  0
  5 17  1  0  0  0  0
  5 36  1  0  0  0  0
  6 16  2  0  0  0  0
  7  9  1  0  0  0  0
  7 24  1  0  0  0  0
  7 25  1  0  0  0  0
  8 10  1  0  0  0  0
  8 26  1  0  0  0  0
  8 27  1  0  0  0  0
  9 28  1  0  0  0  0
  9 29  1  0  0  0  0
 10 30  1  0  0  0  0
 10 31  1  0  0  0  0
 11 13  1  0  0  0  0
 12 32  1  0  0  0  0
 12 33  1  0  0  0  0
 12 34  1  0  0  0  0
 13 15  2  0  0  0  0
 14 15  1  0  0  0  0
 14 16  1  0  0  0  0
 14 17  2  0  0  0  0
 15 35  1  0  0  0  0
 17 18  1  0  0  0  0
 18 19  2  0  0  0  0
 18 20  1  0  0  0  0
 19 21  1  0  0  0  0
 19 37  1  0  0  0  0
 20 22  2  0  0  0  0
 20 38  1  0  0  0  0
 21 23  2  0  0  0  0
 21 39  1  0  0  0  0
 22 23  1  0  0  0  0
 22 40  1  0  0  0  0
 23 41  1  0  0  0  0
M  END
> <PUBCHEM_COMPOUND_CID>
44406018

> <PUBCHEM_COMPOUND_CANONICALIZED>
1

> <PUBCHEM_CACTVS_COMPLEXITY>
434

> <PUBCHEM_CACTVS_HBOND_ACCEPTOR>
4

> <PUBCHEM_CACTVS_HBOND_DONOR>
1

> <PUBCHEM_CACTVS_ROTATABLE_BOND>
2

> <PUBCHEM_CACTVS_SUBSKEYS>
AAADceB7oABAAAAAAAAAAAAAAAAAAWJAAAA8QAAAAAAWAAAB/AAAHgQYAAAADAjB3gQygdNjAAiuAyVyUACTBIBkCBBYuTkoRNgIYLKg1dGUpQxgjgCoyYcYicCeAAAAAAAAAAAAAAAAAAAAAAAAAAAAAA==

> <PUBCHEM_IUPAC_OPENEYE_NAME>
(4-methylpiperazin-1-yl)-(3-phenyl-2H-thieno[2,3-c]pyrazol-5-yl)methanone

> <PUBCHEM_IUPAC_CAS_NAME>
(4-methyl-1-piperazinyl)-(3-phenyl-2H-thieno[2,3-c]pyrazol-5-yl)methanone

> <PUBCHEM_IUPAC_NAME_MARKUP>
(4-methylpiperazin-1-yl)-(3-phenyl-2<I>H</I>-thieno[2,3-c]pyrazol-5-yl)methanone

> <PUBCHEM_IUPAC_NAME>
(4-methylpiperazin-1-yl)-(3-phenyl-2H-thieno[2,3-c]pyrazol-5-yl)methanone

> <PUBCHEM_IUPAC_SYSTEMATIC_NAME>
(4-methylpiperazin-1-yl)-(3-phenyl-2H-thieno[2,3-c]pyrazol-5-yl)methanone

> <PUBCHEM_IUPAC_TRADITIONAL_NAME>
(4-methylpiperazino)-(3-phenyl-2H-thieno[2,3-c]pyrazol-5-yl)methanone

> <PUBCHEM_IUPAC_INCHI>
InChI=1S/C17H18N4OS/c1-20-7-9-21(10-8-20)17(22)14-11-13-15(18-19-16(13)23-14)12-5-3-2-4-6-12/h2-6,11H,7-10H2,1H3,(H,18,19)

> <PUBCHEM_IUPAC_INCHIKEY>
UJXSEZDSHGPMOE-UHFFFAOYSA-N

> <PUBCHEM_XLOGP3_AA>
2.8

> <PUBCHEM_EXACT_MASS>
326.12013238

> <PUBCHEM_MOLECULAR_FORMULA>
C17H18N4OS

> <PUBCHEM_MOLECULAR_WEIGHT>
326.4

> <PUBCHEM_SMILES>
CN1CCN(CC1)C(=O)C2=CC3=C(NN=C3S2)C4=CC=CC=C4

> <PUBCHEM_OPENEYE_CAN_SMILES>
CN1CCN(CC1)C(=O)C2=CC3=C(NN=C3S2)C4=CC=CC=C4

> <PUBCHEM_OPENEYE_ISO_SMILES>
CN1CCN(CC1)C(=O)C2=CC3=C(NN=C3S2)C4=CC=CC=C4

> <PUBCHEM_CACTVS_TPSA>
80.5

> <PUBCHEM_MONOISOTOPIC_WEIGHT>
326.12013238

> <PUBCHEM_TOTAL_CHARGE>
0

> <PUBCHEM_HEAVY_ATOM_COUNT>
23

> <PUBCHEM_ATOM_DEF_STEREO_COUNT>
0

> <PUBCHEM_ATOM_UDEF_STEREO_COUNT>
0

> <PUBCHEM_BOND_DEF_STEREO_COUNT>
0

> <PUBCHEM_BOND_UDEF_STEREO_COUNT>
0

> <PUBCHEM_ISOTOPIC_ATOM_COUNT>
0

> <PUBCHEM_COMPONENT_COUNT>
1

> <PUBCHEM_CACTVS_TAUTO_COUNT>
-1

> <PUBCHEM_COORDINATE_TYPE>
1
5
255

> <PUBCHEM_BONDANNOTATIONS>
1  13  8
1  16  8
13  15  8
14  15  8
14  16  8
14  17  8
18  19  8
18  20  8
19  21  8
20  22  8
21  23  8
22  23  8
5  17  8
5  6  8
6  16  8

$$$$
