49830495
  -OEChem-03202503552D

 40 42  0     0  0  0  0  0  0999 V2000
    3.4030    0.5000    0.0000 O   0  0  0  0  0  0  0  0  0  0  0  0
    5.1350    0.5000    0.0000 N   0  0  0  0  0  0  0  0  0  0  0  0
    2.5369   -1.0000    0.0000 N   0  0  0  0  0  0  0  0  0  0  0  0
    8.5991   -3.5000    0.0000 N   0  0  0  0  0  0  0  0  0  0  0  0
    5.1350   -0.5000    0.0000 C   0  0  0  0  0  0  0  0  0  0  0  0
    6.0010   -2.0000    0.0000 C   0  0  0  0  0  0  0  0  0  0  0  0
    6.0010    1.0000    0.0000 C   0  0  0  0  0  0  0  0  0  0  0  0
    4.2690   -1.0000    0.0000 C   0  0  0  0  0  0  0  0  0  0  0  0
    6.0010   -1.0000    0.0000 C   0  0  0  0  0  0  0  0  0  0  0  0
    6.0010    2.0000    0.0000 C   0  0  0  0  0  0  0  0  0  0  0  0
    5.1350   -2.5000    0.0000 C   0  0  0  0  0  0  0  0  0  0  0  0
    4.2690   -2.0000    0.0000 C   0  0  0  0  0  0  0  0  0  0  0  0
    6.8671   -2.5000    0.0000 C   0  0  0  0  0  0  0  0  0  0  0  0
    6.8671    2.5000    0.0000 C   0  0  0  0  0  0  0  0  0  0  0  0
    5.1350    2.5000    0.0000 C   0  0  0  0  0  0  0  0  0  0  0  0
    3.4030   -0.5000    0.0000 C   0  0  0  0  0  0  0  0  0  0  0  0
    6.8671   -3.5000    0.0000 C   0  0  0  0  0  0  0  0  0  0  0  0
    7.7331   -2.0000    0.0000 C   0  0  0  0  0  0  0  0  0  0  0  0
    6.8671    3.5000    0.0000 C   0  0  0  0  0  0  0  0  0  0  0  0
    5.1350    3.5000    0.0000 C   0  0  0  0  0  0  0  0  0  0  0  0
    6.0010    4.0000    0.0000 C   0  0  0  0  0  0  0  0  0  0  0  0
    7.7331   -4.0000    0.0000 C   0  0  0  0  0  0  0  0  0  0  0  0
    8.5991   -2.5000    0.0000 C   0  0  0  0  0  0  0  0  0  0  0  0
    6.2131    0.4174    0.0000 H   0  0  0  0  0  0  0  0  0  0  0  0
    6.6116    1.1077    0.0000 H   0  0  0  0  0  0  0  0  0  0  0  0
    6.5380   -0.6900    0.0000 H   0  0  0  0  0  0  0  0  0  0  0  0
    4.5981    0.8100    0.0000 H   0  0  0  0  0  0  0  0  0  0  0  0
    5.1350   -3.1200    0.0000 H   0  0  0  0  0  0  0  0  0  0  0  0
    3.7320   -2.3100    0.0000 H   0  0  0  0  0  0  0  0  0  0  0  0
    7.4040    2.1900    0.0000 H   0  0  0  0  0  0  0  0  0  0  0  0
    4.5981    2.1900    0.0000 H   0  0  0  0  0  0  0  0  0  0  0  0
    6.3301   -3.8100    0.0000 H   0  0  0  0  0  0  0  0  0  0  0  0
    7.7331   -1.3800    0.0000 H   0  0  0  0  0  0  0  0  0  0  0  0
    7.4040    3.8100    0.0000 H   0  0  0  0  0  0  0  0  0  0  0  0
    4.5981    3.8100    0.0000 H   0  0  0  0  0  0  0  0  0  0  0  0
    6.0010    4.6200    0.0000 H   0  0  0  0  0  0  0  0  0  0  0  0
    7.7331   -4.6200    0.0000 H   0  0  0  0  0  0  0  0  0  0  0  0
    9.1360   -2.1900    0.0000 H   0  0  0  0  0  0  0  0  0  0  0  0
    2.0000   -0.6900    0.0000 H   0  0  0  0  0  0  0  0  0  0  0  0
    2.5369   -1.6200    0.0000 H   0  0  0  0  0  0  0  0  0  0  0  0
  1 16  2  0  0  0  0
  2  5  1  0  0  0  0
  2  7  1  0  0  0  0
  2 27  1  0  0  0  0
  3 16  1  0  0  0  0
  3 39  1  0  0  0  0
  3 40  1  0  0  0  0
  4 22  2  0  0  0  0
  4 23  1  0  0  0  0
  5  8  2  0  0  0  0
  5  9  1  0  0  0  0
  6  9  2  0  0  0  0
  6 11  1  0  0  0  0
  6 13  1  0  0  0  0
  7 10  1  0  0  0  0
  7 24  1  0  0  0  0
  7 25  1  0  0  0  0
  8 12  1  0  0  0  0
  8 16  1  0  0  0  0
  9 26  1  0  0  0  0
 10 14  2  0  0  0  0
 10 15  1  0  0  0  0
 11 12  2  0  0  0  0
 11 28  1  0  0  0  0
 12 29  1  0  0  0  0
 13 17  2  0  0  0  0
 13 18  1  0  0  0  0
 14 19  1  0  0  0  0
 14 30  1  0  0  0  0
 15 20  2  0  0  0  0
 15 31  1  0  0  0  0
 17 22  1  0  0  0  0
 17 32  1  0  0  0  0
 18 23  2  0  0  0  0
 18 33  1  0  0  0  0
 19 21  2  0  0  0  0
 19 34  1  0  0  0  0
 20 21  1  0  0  0  0
 20 35  1  0  0  0  0
 21 36  1  0  0  0  0
 22 37  1  0  0  0  0
 23 38  1  0  0  0  0
M  END
> <PUBCHEM_COMPOUND_CID>
49830495

> <PUBCHEM_COMPOUND_CANONICALIZED>
1

> <PUBCHEM_CACTVS_COMPLEXITY>
375

> <PUBCHEM_CACTVS_HBOND_ACCEPTOR>
3

> <PUBCHEM_CACTVS_HBOND_DONOR>
2

> <PUBCHEM_CACTVS_ROTATABLE_BOND>
5

> <PUBCHEM_CACTVS_SUBSKEYS>
AAADceB7IAAAAAAAAAAAAAAAAAAAAAAAAAA8YIAAAAAAAAAB0AAAHgAQAAAADAjBmgQ8wJLIEACoAjV3VACCgCA1AiAI2KE4ZNgIIHrA1ZGEIYhgkADIyccYiMCOwAAAQAACAACAAACAAAQAAAAAAAAAAA==

> <PUBCHEM_IUPAC_OPENEYE_NAME>
2-(benzylamino)-4-(4-pyridyl)benzamide

> <PUBCHEM_IUPAC_CAS_NAME>
2-[(phenylmethyl)amino]-4-pyridin-4-ylbenzamide

> <PUBCHEM_IUPAC_NAME_MARKUP>
2-(benzylamino)-4-pyridin-4-ylbenzamide

> <PUBCHEM_IUPAC_NAME>
2-(benzylamino)-4-pyridin-4-ylbenzamide

> <PUBCHEM_IUPAC_SYSTEMATIC_NAME>
2-[(phenylmethyl)amino]-4-pyridin-4-yl-benzamide

> <PUBCHEM_IUPAC_TRADITIONAL_NAME>
2-(benzylamino)-4-(4-pyridyl)benzamide

> <PUBCHEM_IUPAC_INCHI>
InChI=1S/C19H17N3O/c20-19(23)17-7-6-16(15-8-10-21-11-9-15)12-18(17)22-13-14-4-2-1-3-5-14/h1-12,22H,13H2,(H2,20,23)

> <PUBCHEM_IUPAC_INCHIKEY>
PMZKTTKWUGJZHP-UHFFFAOYSA-N

> <PUBCHEM_XLOGP3_AA>
3.4

> <PUBCHEM_EXACT_MASS>
303.137162174

> <PUBCHEM_MOLECULAR_FORMULA>
C19H17N3O

> <PUBCHEM_MOLECULAR_WEIGHT>
303.4

> <PUBCHEM_SMILES>
C1=CC=C(C=C1)CNC2=C(C=CC(=C2)C3=CC=NC=C3)C(=O)N

> <PUBCHEM_OPENEYE_CAN_SMILES>
C1=CC=C(C=C1)CNC2=C(C=CC(=C2)C3=CC=NC=C3)C(=O)N

> <PUBCHEM_OPENEYE_ISO_SMILES>
C1=CC=C(C=C1)CNC2=C(C=CC(=C2)C3=CC=NC=C3)C(=O)N

> <PUBCHEM_CACTVS_TPSA>
68

> <PUBCHEM_MONOISOTOPIC_WEIGHT>
303.137162174

> <PUBCHEM_TOTAL_CHARGE>
0

> <PUBCHEM_HEAVY_ATOM_COUNT>
23

> <PUBCHEM_ATOM_DEF_STEREO_COUNT>
0

> <PUBCHEM_ATOM_UDEF_STEREO_COUNT>
0

> <PUBCHEM_BOND_DEF_STEREO_COUNT>
0

> <PUBCHEM_BOND_UDEF_STEREO_COUNT>
0

> <PUBCHEM_ISOTOPIC_ATOM_COUNT>
0

> <PUBCHEM_COMPONENT_COUNT>
1

> <PUBCHEM_CACTVS_TAUTO_COUNT>
-1

> <PUBCHEM_COORDINATE_TYPE>
1
5
255

> <PUBCHEM_BONDANNOTATIONS>
10  14  8
10  15  8
11  12  8
13  17  8
13  18  8
14  19  8
15  20  8
17  22  8
18  23  8
19  21  8
20  21  8
4  22  8
4  23  8
5  8  8
5  9  8
6  11  8
6  9  8
8  12  8

$$$$
