49830559
  -OEChem-03202502442D

 59 63  0     0  0  0  0  0  0999 V2000
   13.2988    0.0000    0.0000 S   0  0  0  0  0  0  0  0  0  0  0  0
   14.7988    2.5981    0.0000 O   0  0  0  0  0  0  0  0  0  0  0  0
   14.1648   -0.5000    0.0000 O   0  0  0  0  0  0  0  0  0  0  0  0
   12.4328    0.5000    0.0000 O   0  0  0  0  0  0  0  0  0  0  0  0
    9.7988   -2.5981    0.0000 O   0  0  0  0  0  0  0  0  0  0  0  0
    4.2690    1.6340    0.0000 O   0  0  0  0  0  0  0  0  0  0  0  0
   13.7988    0.8660    0.0000 N   0  0  0  0  0  0  0  0  0  0  0  0
    5.2152   -1.6708    0.0000 N   0  0  0  0  0  0  0  0  0  0  0  0
    9.7988   -0.8660    0.0000 N   0  0  0  0  0  0  0  0  0  0  0  0
    5.2152   -0.0613    0.0000 N   0  0  0  0  0  0  0  0  0  0  0  0
    2.5369    1.6340    0.0000 N   0  0  0  0  0  0  0  0  0  0  0  0
   13.2988    1.7320    0.0000 C   0  0  0  0  0  0  0  0  0  0  0  0
   14.7988    0.8660    0.0000 C   0  0  0  0  0  0  0  0  0  0  0  0
   13.7988    2.5981    0.0000 C   0  0  0  0  0  0  0  0  0  0  0  0
   15.2988    1.7320    0.0000 C   0  0  0  0  0  0  0  0  0  0  0  0
   12.7988   -0.8660    0.0000 C   0  0  0  0  0  0  0  0  0  0  0  0
   11.7988   -0.8660    0.0000 C   0  0  0  0  0  0  0  0  0  0  0  0
   13.2988   -1.7320    0.0000 C   0  0  0  0  0  0  0  0  0  0  0  0
   11.2988   -1.7320    0.0000 C   0  0  0  0  0  0  0  0  0  0  0  0
   12.7988   -2.5981    0.0000 C   0  0  0  0  0  0  0  0  0  0  0  0
   11.7988   -2.5981    0.0000 C   0  0  0  0  0  0  0  0  0  0  0  0
   10.2988   -1.7320    0.0000 C   0  0  0  0  0  0  0  0  0  0  0  0
    5.7988   -0.8660    0.0000 C   0  0  0  0  0  0  0  0  0  0  0  0
    4.2690   -1.3660    0.0000 C   0  0  0  0  0  0  0  0  0  0  0  0
    4.2690   -0.3660    0.0000 C   0  0  0  0  0  0  0  0  0  0  0  0
    6.7988   -0.8660    0.0000 C   0  0  0  0  0  0  0  0  0  0  0  0
    8.7988   -0.8660    0.0000 C   0  0  0  0  0  0  0  0  0  0  0  0
    3.4030    0.1340    0.0000 C   0  0  0  0  0  0  0  0  0  0  0  0
    7.2988   -1.7320    0.0000 C   0  0  0  0  0  0  0  0  0  0  0  0
    7.2988    0.0000    0.0000 C   0  0  0  0  0  0  0  0  0  0  0  0
    3.4030   -1.8660    0.0000 C   0  0  0  0  0  0  0  0  0  0  0  0
    8.2988   -1.7320    0.0000 C   0  0  0  0  0  0  0  0  0  0  0  0
    8.2988   -0.0000    0.0000 C   0  0  0  0  0  0  0  0  0  0  0  0
    2.5369   -0.3660    0.0000 C   0  0  0  0  0  0  0  0  0  0  0  0
    2.5369   -1.3660    0.0000 C   0  0  0  0  0  0  0  0  0  0  0  0
    3.4030    1.1340    0.0000 C   0  0  0  0  0  0  0  0  0  0  0  0
   12.8239    2.1306    0.0000 H   0  0  0  0  0  0  0  0  0  0  0  0
   12.8239    1.3335    0.0000 H   0  0  0  0  0  0  0  0  0  0  0  0
   14.6912    0.2554    0.0000 H   0  0  0  0  0  0  0  0  0  0  0  0
   15.3814    0.6540    0.0000 H   0  0  0  0  0  0  0  0  0  0  0  0
   13.9065    3.2087    0.0000 H   0  0  0  0  0  0  0  0  0  0  0  0
   13.2162    2.8101    0.0000 H   0  0  0  0  0  0  0  0  0  0  0  0
   15.7738    1.3335    0.0000 H   0  0  0  0  0  0  0  0  0  0  0  0
   15.7738    2.1306    0.0000 H   0  0  0  0  0  0  0  0  0  0  0  0
   11.4888   -0.3291    0.0000 H   0  0  0  0  0  0  0  0  0  0  0  0
   13.9188   -1.7320    0.0000 H   0  0  0  0  0  0  0  0  0  0  0  0
   13.1088   -3.1350    0.0000 H   0  0  0  0  0  0  0  0  0  0  0  0
   11.4888   -3.1350    0.0000 H   0  0  0  0  0  0  0  0  0  0  0  0
    5.4078   -2.2601    0.0000 H   0  0  0  0  0  0  0  0  0  0  0  0
   10.1088   -0.3291    0.0000 H   0  0  0  0  0  0  0  0  0  0  0  0
    6.9888   -2.2690    0.0000 H   0  0  0  0  0  0  0  0  0  0  0  0
    6.9888    0.5369    0.0000 H   0  0  0  0  0  0  0  0  0  0  0  0
    3.4030   -2.4860    0.0000 H   0  0  0  0  0  0  0  0  0  0  0  0
    8.6088   -2.2690    0.0000 H   0  0  0  0  0  0  0  0  0  0  0  0
    8.6088    0.5369    0.0000 H   0  0  0  0  0  0  0  0  0  0  0  0
    2.0000   -0.0560    0.0000 H   0  0  0  0  0  0  0  0  0  0  0  0
    2.0000   -1.6760    0.0000 H   0  0  0  0  0  0  0  0  0  0  0  0
    2.5369    2.2540    0.0000 H   0  0  0  0  0  0  0  0  0  0  0  0
    2.0000    1.3240    0.0000 H   0  0  0  0  0  0  0  0  0  0  0  0
  1  3  2  0  0  0  0
  1  4  2  0  0  0  0
  1  7  1  0  0  0  0
  1 16  1  0  0  0  0
  2 14  1  0  0  0  0
  2 15  1  0  0  0  0
  5 22  2  0  0  0  0
  6 36  2  0  0  0  0
  7 12  1  0  0  0  0
  7 13  1  0  0  0  0
  8 23  1  0  0  0  0
  8 24  1  0  0  0  0
  8 49  1  0  0  0  0
  9 22  1  0  0  0  0
  9 27  1  0  0  0  0
  9 50  1  0  0  0  0
 10 23  2  0  0  0  0
 10 25  1  0  0  0  0
 11 36  1  0  0  0  0
 11 58  1  0  0  0  0
 11 59  1  0  0  0  0
 12 14  1  0  0  0  0
 12 37  1  0  0  0  0
 12 38  1  0  0  0  0
 13 15  1  0  0  0  0
 13 39  1  0  0  0  0
 13 40  1  0  0  0  0
 14 41  1  0  0  0  0
 14 42  1  0  0  0  0
 15 43  1  0  0  0  0
 15 44  1  0  0  0  0
 16 17  1  0  0  0  0
 16 18  2  0  0  0  0
 17 19  2  0  0  0  0
 17 45  1  0  0  0  0
 18 20  1  0  0  0  0
 18 46  1  0  0  0  0
 19 21  1  0  0  0  0
 19 22  1  0  0  0  0
 20 21  2  0  0  0  0
 20 47  1  0  0  0  0
 21 48  1  0  0  0  0
 23 26  1  0  0  0  0
 24 25  1  0  0  0  0
 24 31  2  0  0  0  0
 25 28  2  0  0  0  0
 26 29  2  0  0  0  0
 26 30  1  0  0  0  0
 27 32  2  0  0  0  0
 27 33  1  0  0  0  0
 28 34  1  0  0  0  0
 28 36  1  0  0  0  0
 29 32  1  0  0  0  0
 29 51  1  0  0  0  0
 30 33  2  0  0  0  0
 30 52  1  0  0  0  0
 31 35  1  0  0  0  0
 31 53  1  0  0  0  0
 32 54  1  0  0  0  0
 33 55  1  0  0  0  0
 34 35  2  0  0  0  0
 34 56  1  0  0  0  0
 35 57  1  0  0  0  0
M  END
> <PUBCHEM_COMPOUND_CID>
49830559

> <PUBCHEM_COMPOUND_CANONICALIZED>
1

> <PUBCHEM_CACTVS_COMPLEXITY>
897

> <PUBCHEM_CACTVS_HBOND_ACCEPTOR>
7

> <PUBCHEM_CACTVS_HBOND_DONOR>
3

> <PUBCHEM_CACTVS_ROTATABLE_BOND>
6

> <PUBCHEM_CACTVS_SUBSKEYS>
AAADceB7uABAAAAAAAAAAAAAAAAAAWAAAAA8YMEAAAAAAFgB9AAAHgQQQAAADAjh3wYx0bbJlAKoAydydHDCgD2lEqAJmTk4dNiKaLrA3ZGXIYholALYyecciACOCAAAwAACACAQAAGAAAQAQAAAAAAAAA==

> <PUBCHEM_IUPAC_OPENEYE_NAME>
2-[4-[(3-morpholinosulfonylbenzoyl)amino]phenyl]-1H-benzimidazole-4-carboxamide

> <PUBCHEM_IUPAC_CAS_NAME>
2-[4-[[[3-(4-morpholinylsulfonyl)phenyl]-oxomethyl]amino]phenyl]-1H-benzimidazole-4-carboxamide

> <PUBCHEM_IUPAC_NAME_MARKUP>
2-[4-[(3-morpholin-4-ylsulfonylbenzoyl)amino]phenyl]-1<I>H</I>-benzimidazole-4-carboxamide

> <PUBCHEM_IUPAC_NAME>
2-[4-[(3-morpholin-4-ylsulfonylbenzoyl)amino]phenyl]-1H-benzimidazole-4-carboxamide

> <PUBCHEM_IUPAC_SYSTEMATIC_NAME>
2-[4-[(3-morpholin-4-ylsulfonylphenyl)carbonylamino]phenyl]-1H-benzimidazole-4-carboxamide

> <PUBCHEM_IUPAC_TRADITIONAL_NAME>
2-[4-[(3-morpholinosulfonylbenzoyl)amino]phenyl]-1H-benzimidazole-4-carboxamide

> <PUBCHEM_IUPAC_INCHI>
InChI=1S/C25H23N5O5S/c26-23(31)20-5-2-6-21-22(20)29-24(28-21)16-7-9-18(10-8-16)27-25(32)17-3-1-4-19(15-17)36(33,34)30-11-13-35-14-12-30/h1-10,15H,11-14H2,(H2,26,31)(H,27,32)(H,28,29)

> <PUBCHEM_IUPAC_INCHIKEY>
OQSVYNYDHYYKJX-UHFFFAOYSA-N

> <PUBCHEM_XLOGP3_AA>
1.6

> <PUBCHEM_EXACT_MASS>
505.14199002

> <PUBCHEM_MOLECULAR_FORMULA>
C25H23N5O5S

> <PUBCHEM_MOLECULAR_WEIGHT>
505.5

> <PUBCHEM_SMILES>
C1COCCN1S(=O)(=O)C2=CC=CC(=C2)C(=O)NC3=CC=C(C=C3)C4=NC5=C(C=CC=C5N4)C(=O)N

> <PUBCHEM_OPENEYE_CAN_SMILES>
C1COCCN1S(=O)(=O)C2=CC=CC(=C2)C(=O)NC3=CC=C(C=C3)C4=NC5=C(C=CC=C5N4)C(=O)N

> <PUBCHEM_OPENEYE_ISO_SMILES>
C1COCCN1S(=O)(=O)C2=CC=CC(=C2)C(=O)NC3=CC=C(C=C3)C4=NC5=C(C=CC=C5N4)C(=O)N

> <PUBCHEM_CACTVS_TPSA>
156

> <PUBCHEM_MONOISOTOPIC_WEIGHT>
505.14199002

> <PUBCHEM_TOTAL_CHARGE>
0

> <PUBCHEM_HEAVY_ATOM_COUNT>
36

> <PUBCHEM_ATOM_DEF_STEREO_COUNT>
0

> <PUBCHEM_ATOM_UDEF_STEREO_COUNT>
0

> <PUBCHEM_BOND_DEF_STEREO_COUNT>
0

> <PUBCHEM_BOND_UDEF_STEREO_COUNT>
0

> <PUBCHEM_ISOTOPIC_ATOM_COUNT>
0

> <PUBCHEM_COMPONENT_COUNT>
1

> <PUBCHEM_CACTVS_TAUTO_COUNT>
-1

> <PUBCHEM_COORDINATE_TYPE>
1
5
255

> <PUBCHEM_BONDANNOTATIONS>
10  23  8
10  25  8
16  17  8
16  18  8
17  19  8
18  20  8
19  21  8
20  21  8
24  25  8
24  31  8
25  28  8
26  29  8
26  30  8
27  32  8
27  33  8
28  34  8
29  32  8
30  33  8
31  35  8
34  35  8
8  23  8
8  24  8

$$$$
