623415
  -OEChem-03202503172D

 25 27  0     0  0  0  0  0  0999 V2000
    2.0000   -0.1311    0.0000 Br  0  0  0  0  0  0  0  0  0  0  0  0
    5.5443   -1.9358    0.0000 N   0  0  0  0  0  0  0  0  0  0  0  0
    6.1279   -1.1311    0.0000 N   0  0  0  0  0  0  0  0  0  0  0  0
    4.5981   -0.6311    0.0000 C   0  0  0  0  0  0  0  0  0  0  0  0
    5.5443   -0.3264    0.0000 C   0  0  0  0  0  0  0  0  0  0  0  0
    4.5981   -1.6311    0.0000 C   0  0  0  0  0  0  0  0  0  0  0  0
    5.8550    0.6241    0.0000 C   0  0  0  0  0  0  0  0  0  0  0  0
    3.7320   -0.1311    0.0000 C   0  0  0  0  0  0  0  0  0  0  0  0
    3.7320   -2.1311    0.0000 C   0  0  0  0  0  0  0  0  0  0  0  0
    2.8660   -0.6311    0.0000 C   0  0  0  0  0  0  0  0  0  0  0  0
    6.8335    0.8304    0.0000 C   0  0  0  0  0  0  0  0  0  0  0  0
    5.1871    1.3684    0.0000 C   0  0  0  0  0  0  0  0  0  0  0  0
    2.8660   -1.6311    0.0000 C   0  0  0  0  0  0  0  0  0  0  0  0
    7.1441    1.7809    0.0000 C   0  0  0  0  0  0  0  0  0  0  0  0
    5.4978    2.3190    0.0000 C   0  0  0  0  0  0  0  0  0  0  0  0
    6.4763    2.5252    0.0000 C   0  0  0  0  0  0  0  0  0  0  0  0
    3.7320    0.4889    0.0000 H   0  0  0  0  0  0  0  0  0  0  0  0
    5.7369   -2.5252    0.0000 H   0  0  0  0  0  0  0  0  0  0  0  0
    3.7320   -2.7511    0.0000 H   0  0  0  0  0  0  0  0  0  0  0  0
    7.2475    0.3689    0.0000 H   0  0  0  0  0  0  0  0  0  0  0  0
    4.5804    1.2406    0.0000 H   0  0  0  0  0  0  0  0  0  0  0  0
    2.3291   -1.9411    0.0000 H   0  0  0  0  0  0  0  0  0  0  0  0
    7.7508    1.9087    0.0000 H   0  0  0  0  0  0  0  0  0  0  0  0
    5.0837    2.7804    0.0000 H   0  0  0  0  0  0  0  0  0  0  0  0
    6.6689    3.1145    0.0000 H   0  0  0  0  0  0  0  0  0  0  0  0
  1 10  1  0  0  0  0
  2  3  1  0  0  0  0
  2  6  1  0  0  0  0
  2 18  1  0  0  0  0
  3  5  2  0  0  0  0
  4  5  1  0  0  0  0
  4  6  2  0  0  0  0
  4  8  1  0  0  0  0
  5  7  1  0  0  0  0
  6  9  1  0  0  0  0
  7 11  2  0  0  0  0
  7 12  1  0  0  0  0
  8 10  2  0  0  0  0
  8 17  1  0  0  0  0
  9 13  2  0  0  0  0
  9 19  1  0  0  0  0
 10 13  1  0  0  0  0
 11 14  1  0  0  0  0
 11 20  1  0  0  0  0
 12 15  2  0  0  0  0
 12 21  1  0  0  0  0
 13 22  1  0  0  0  0
 14 16  2  0  0  0  0
 14 23  1  0  0  0  0
 15 16  1  0  0  0  0
 15 24  1  0  0  0  0
 16 25  1  0  0  0  0
M  END
> <PUBCHEM_COMPOUND_CID>
623415

> <PUBCHEM_COMPOUND_CANONICALIZED>
1

> <PUBCHEM_CACTVS_COMPLEXITY>
240

> <PUBCHEM_CACTVS_HBOND_ACCEPTOR>
1

> <PUBCHEM_CACTVS_HBOND_DONOR>
1

> <PUBCHEM_CACTVS_ROTATABLE_BOND>
1

> <PUBCHEM_CACTVS_SUBSKEYS>
AAADccBzAAAAEAAAAAAAAAAAAAAAAWAAAAAwYAAAAAAAAFgB9AAAHABYAAABrAiBHgAwwPBjAACiAyRiQACSBAAgAgQYuSAwZLgIIKKA0dGApABgmAAIyhcQgMAOAAAgEAACAAAAAEAgAAQAAAAAAAAAAA==

> <PUBCHEM_IUPAC_OPENEYE_NAME>
5-bromo-3-phenyl-1H-indazole

> <PUBCHEM_IUPAC_CAS_NAME>
5-bromo-3-phenyl-1H-indazole

> <PUBCHEM_IUPAC_NAME_MARKUP>
5-bromo-3-phenyl-1<I>H</I>-indazole

> <PUBCHEM_IUPAC_NAME>
5-bromo-3-phenyl-1H-indazole

> <PUBCHEM_IUPAC_SYSTEMATIC_NAME>
5-bromanyl-3-phenyl-1H-indazole

> <PUBCHEM_IUPAC_TRADITIONAL_NAME>
5-bromo-3-phenyl-1H-indazole

> <PUBCHEM_IUPAC_INCHI>
InChI=1S/C13H9BrN2/c14-10-6-7-12-11(8-10)13(16-15-12)9-4-2-1-3-5-9/h1-8H,(H,15,16)

> <PUBCHEM_IUPAC_INCHIKEY>
QXKKPVVOOWBLND-UHFFFAOYSA-N

> <PUBCHEM_XLOGP3_AA>
3.9

> <PUBCHEM_EXACT_MASS>
271.99491

> <PUBCHEM_MOLECULAR_FORMULA>
C13H9BrN2

> <PUBCHEM_MOLECULAR_WEIGHT>
273.13

> <PUBCHEM_SMILES>
C1=CC=C(C=C1)C2=NNC3=C2C=C(C=C3)Br

> <PUBCHEM_OPENEYE_CAN_SMILES>
C1=CC=C(C=C1)C2=NNC3=C2C=C(C=C3)Br

> <PUBCHEM_OPENEYE_ISO_SMILES>
C1=CC=C(C=C1)C2=NNC3=C2C=C(C=C3)Br

> <PUBCHEM_CACTVS_TPSA>
28.7

> <PUBCHEM_MONOISOTOPIC_WEIGHT>
271.99491

> <PUBCHEM_TOTAL_CHARGE>
0

> <PUBCHEM_HEAVY_ATOM_COUNT>
16

> <PUBCHEM_ATOM_DEF_STEREO_COUNT>
0

> <PUBCHEM_ATOM_UDEF_STEREO_COUNT>
0

> <PUBCHEM_BOND_DEF_STEREO_COUNT>
0

> <PUBCHEM_BOND_UDEF_STEREO_COUNT>
0

> <PUBCHEM_ISOTOPIC_ATOM_COUNT>
0

> <PUBCHEM_COMPONENT_COUNT>
1

> <PUBCHEM_CACTVS_TAUTO_COUNT>
-1

> <PUBCHEM_COORDINATE_TYPE>
1
5
255

> <PUBCHEM_BONDANNOTATIONS>
10  13  8
11  14  8
12  15  8
14  16  8
15  16  8
2  3  8
2  6  8
3  5  8
4  5  8
4  6  8
4  8  8
6  9  8
7  11  8
7  12  8
8  10  8
9  13  8

$$$$
