49830566
  -OEChem-03202502072D

 48 51  0     0  0  0  0  0  0999 V2000
    4.6783   -4.4464    0.0000 S   0  0  0  0  0  0  0  0  0  0  0  0
    4.3211   -1.1421    0.0000 O   0  0  0  0  0  0  0  0  0  0  0  0
    8.8564    1.5838    0.0000 O   0  0  0  0  0  0  0  0  0  0  0  0
    5.9674   -1.6802    0.0000 N   0  0  0  0  0  0  0  0  0  0  0  0
    7.2101    2.1219    0.0000 N   0  0  0  0  0  0  0  0  0  0  0  0
    8.4993    3.2787    0.0000 N   0  0  0  0  0  0  0  0  0  0  0  0
    2.8660   -4.6416    0.0000 N   0  0  0  0  0  0  0  0  0  0  0  0
    2.0000   -3.1416    0.0000 N   0  0  0  0  0  0  0  0  0  0  0  0
    2.8660   -1.6416    0.0000 N   0  0  0  0  0  0  0  0  0  0  0  0
    4.6783   -2.8369    0.0000 C   0  0  0  0  0  0  0  0  0  0  0  0
    3.7320   -3.1416    0.0000 C   0  0  0  0  0  0  0  0  0  0  0  0
    6.2781   -0.7296    0.0000 C   0  0  0  0  0  0  0  0  0  0  0  0
    3.7320   -4.1416    0.0000 C   0  0  0  0  0  0  0  0  0  0  0  0
    4.9889   -1.8864    0.0000 C   0  0  0  0  0  0  0  0  0  0  0  0
    6.8994    1.1714    0.0000 C   0  0  0  0  0  0  0  0  0  0  0  0
    5.2619   -3.6416    0.0000 C   0  0  0  0  0  0  0  0  0  0  0  0
    2.8660   -2.6416    0.0000 C   0  0  0  0  0  0  0  0  0  0  0  0
    9.4778    3.4849    0.0000 C   0  0  0  0  0  0  0  0  0  0  0  0
    5.6103    0.0147    0.0000 C   0  0  0  0  0  0  0  0  0  0  0  0
    7.2566   -0.5234    0.0000 C   0  0  0  0  0  0  0  0  0  0  0  0
   10.1456    2.7406    0.0000 C   0  0  0  0  0  0  0  0  0  0  0  0
    5.9209    0.9652    0.0000 C   0  0  0  0  0  0  0  0  0  0  0  0
    7.5673    0.4271    0.0000 C   0  0  0  0  0  0  0  0  0  0  0  0
    8.1886    2.3282    0.0000 C   0  0  0  0  0  0  0  0  0  0  0  0
    9.7884    4.4354    0.0000 C   0  0  0  0  0  0  0  0  0  0  0  0
   11.1241    2.9468    0.0000 C   0  0  0  0  0  0  0  0  0  0  0  0
    9.8349    1.7901    0.0000 C   0  0  0  0  0  0  0  0  0  0  0  0
   10.7669    4.6416    0.0000 C   0  0  0  0  0  0  0  0  0  0  0  0
   11.4348    3.8973    0.0000 C   0  0  0  0  0  0  0  0  0  0  0  0
    2.0000   -4.1416    0.0000 C   0  0  0  0  0  0  0  0  0  0  0  0
    6.3815   -2.1416    0.0000 H   0  0  0  0  0  0  0  0  0  0  0  0
    5.8819   -3.6416    0.0000 H   0  0  0  0  0  0  0  0  0  0  0  0
    5.0036   -0.1132    0.0000 H   0  0  0  0  0  0  0  0  0  0  0  0
    7.6707   -0.9849    0.0000 H   0  0  0  0  0  0  0  0  0  0  0  0
    5.5069    1.4267    0.0000 H   0  0  0  0  0  0  0  0  0  0  0  0
    8.1739    0.5550    0.0000 H   0  0  0  0  0  0  0  0  0  0  0  0
    6.7960    2.5834    0.0000 H   0  0  0  0  0  0  0  0  0  0  0  0
    8.0852    3.7401    0.0000 H   0  0  0  0  0  0  0  0  0  0  0  0
    9.3744    4.8969    0.0000 H   0  0  0  0  0  0  0  0  0  0  0  0
   11.5382    2.4853    0.0000 H   0  0  0  0  0  0  0  0  0  0  0  0
    9.2456    1.9827    0.0000 H   0  0  0  0  0  0  0  0  0  0  0  0
    9.6423    1.2007    0.0000 H   0  0  0  0  0  0  0  0  0  0  0  0
   10.4243    1.5974    0.0000 H   0  0  0  0  0  0  0  0  0  0  0  0
   10.9595    5.2310    0.0000 H   0  0  0  0  0  0  0  0  0  0  0  0
   12.0414    4.0252    0.0000 H   0  0  0  0  0  0  0  0  0  0  0  0
    1.4631   -4.4516    0.0000 H   0  0  0  0  0  0  0  0  0  0  0  0
    2.3291   -1.3316    0.0000 H   0  0  0  0  0  0  0  0  0  0  0  0
    3.4030   -1.3316    0.0000 H   0  0  0  0  0  0  0  0  0  0  0  0
  1 13  1  0  0  0  0
  1 16  1  0  0  0  0
  2 14  2  0  0  0  0
  3 24  2  0  0  0  0
  4 12  1  0  0  0  0
  4 14  1  0  0  0  0
  4 31  1  0  0  0  0
  5 15  1  0  0  0  0
  5 24  1  0  0  0  0
  5 37  1  0  0  0  0
  6 18  1  0  0  0  0
  6 24  1  0  0  0  0
  6 38  1  0  0  0  0
  7 13  2  0  0  0  0
  7 30  1  0  0  0  0
  8 17  1  0  0  0  0
  8 30  2  0  0  0  0
  9 17  1  0  0  0  0
  9 47  1  0  0  0  0
  9 48  1  0  0  0  0
 10 11  1  0  0  0  0
 10 14  1  0  0  0  0
 10 16  2  0  0  0  0
 11 13  1  0  0  0  0
 11 17  2  0  0  0  0
 12 19  2  0  0  0  0
 12 20  1  0  0  0  0
 15 22  2  0  0  0  0
 15 23  1  0  0  0  0
 16 32  1  0  0  0  0
 18 21  1  0  0  0  0
 18 25  2  0  0  0  0
 19 22  1  0  0  0  0
 19 33  1  0  0  0  0
 20 23  2  0  0  0  0
 20 34  1  0  0  0  0
 21 26  2  0  0  0  0
 21 27  1  0  0  0  0
 22 35  1  0  0  0  0
 23 36  1  0  0  0  0
 25 28  1  0  0  0  0
 25 39  1  0  0  0  0
 26 29  1  0  0  0  0
 26 40  1  0  0  0  0
 27 41  1  0  0  0  0
 27 42  1  0  0  0  0
 27 43  1  0  0  0  0
 28 29  2  0  0  0  0
 28 44  1  0  0  0  0
 29 45  1  0  0  0  0
 30 46  1  0  0  0  0
M  END
> <PUBCHEM_COMPOUND_CID>
49830566

> <PUBCHEM_COMPOUND_CANONICALIZED>
1

> <PUBCHEM_CACTVS_COMPLEXITY>
614

> <PUBCHEM_CACTVS_HBOND_ACCEPTOR>
6

> <PUBCHEM_CACTVS_HBOND_DONOR>
4

> <PUBCHEM_CACTVS_ROTATABLE_BOND>
4

> <PUBCHEM_CACTVS_SUBSKEYS>
AAADceB7sABAAAAAAAAAAAAAAAAAASAAAAA8YIAAAAAAAFgB/AAAHgQQAAAADAiF2gS38dbIEAisAidzdACD0Kl1CrgJ2DEoZNiIKDLg3dGEJQxolALoyacUgAAOgACAAAACAAAAAQAAAAQAAAAAAAAAAA==

> <PUBCHEM_IUPAC_OPENEYE_NAME>
4-amino-N-[4-(o-tolylcarbamoylamino)phenyl]thieno[2,3-d]pyrimidine-5-carboxamide

> <PUBCHEM_IUPAC_CAS_NAME>
4-amino-N-[4-[[(2-methylanilino)-oxomethyl]amino]phenyl]-5-thieno[2,3-d]pyrimidinecarboxamide

> <PUBCHEM_IUPAC_NAME_MARKUP>
4-amino-<I>N</I>-[4-[(2-methylphenyl)carbamoylamino]phenyl]thieno[2,3-d]pyrimidine-5-carboxamide

> <PUBCHEM_IUPAC_NAME>
4-amino-N-[4-[(2-methylphenyl)carbamoylamino]phenyl]thieno[2,3-d]pyrimidine-5-carboxamide

> <PUBCHEM_IUPAC_SYSTEMATIC_NAME>
4-azanyl-N-[4-[(2-methylphenyl)carbamoylamino]phenyl]thieno[2,3-d]pyrimidine-5-carboxamide

> <PUBCHEM_IUPAC_TRADITIONAL_NAME>
4-amino-N-[4-(o-tolylcarbamoylamino)phenyl]thieno[2,3-d]pyrimidine-5-carboxamide

> <PUBCHEM_IUPAC_INCHI>
InChI=1S/C21H18N6O2S/c1-12-4-2-3-5-16(12)27-21(29)26-14-8-6-13(7-9-14)25-19(28)15-10-30-20-17(15)18(22)23-11-24-20/h2-11H,1H3,(H,25,28)(H2,22,23,24)(H2,26,27,29)

> <PUBCHEM_IUPAC_INCHIKEY>
QPORZABOFXPRHM-UHFFFAOYSA-N

> <PUBCHEM_XLOGP3_AA>
3

> <PUBCHEM_EXACT_MASS>
418.12119501

> <PUBCHEM_MOLECULAR_FORMULA>
C21H18N6O2S

> <PUBCHEM_MOLECULAR_WEIGHT>
418.5

> <PUBCHEM_SMILES>
CC1=CC=CC=C1NC(=O)NC2=CC=C(C=C2)NC(=O)C3=CSC4=NC=NC(=C34)N

> <PUBCHEM_OPENEYE_CAN_SMILES>
CC1=CC=CC=C1NC(=O)NC2=CC=C(C=C2)NC(=O)C3=CSC4=NC=NC(=C34)N

> <PUBCHEM_OPENEYE_ISO_SMILES>
CC1=CC=CC=C1NC(=O)NC2=CC=C(C=C2)NC(=O)C3=CSC4=NC=NC(=C34)N

> <PUBCHEM_CACTVS_TPSA>
150

> <PUBCHEM_MONOISOTOPIC_WEIGHT>
418.12119501

> <PUBCHEM_TOTAL_CHARGE>
0

> <PUBCHEM_HEAVY_ATOM_COUNT>
30

> <PUBCHEM_ATOM_DEF_STEREO_COUNT>
0

> <PUBCHEM_ATOM_UDEF_STEREO_COUNT>
0

> <PUBCHEM_BOND_DEF_STEREO_COUNT>
0

> <PUBCHEM_BOND_UDEF_STEREO_COUNT>
0

> <PUBCHEM_ISOTOPIC_ATOM_COUNT>
0

> <PUBCHEM_COMPONENT_COUNT>
1

> <PUBCHEM_CACTVS_TAUTO_COUNT>
-1

> <PUBCHEM_COORDINATE_TYPE>
1
5
255

> <PUBCHEM_BONDANNOTATIONS>
1  13  8
1  16  8
10  11  8
10  16  8
11  13  8
11  17  8
12  19  8
12  20  8
15  22  8
15  23  8
18  21  8
18  25  8
19  22  8
20  23  8
21  26  8
25  28  8
26  29  8
28  29  8
7  13  8
7  30  8
8  17  8
8  30  8

$$$$
