11176299
  -OEChem-03202503192D

 46 49  0     0  0  0  0  0  0999 V2000
    2.0000   -2.0530    0.0000 F   0  0  0  0  0  0  0  0  0  0  0  0
    5.4641    0.9470    0.0000 O   0  0  0  0  0  0  0  0  0  0  0  0
    5.5443   -4.8577    0.0000 N   0  0  0  0  0  0  0  0  0  0  0  0
    6.1279   -4.0530    0.0000 N   0  0  0  0  0  0  0  0  0  0  0  0
    3.7320    0.9470    0.0000 N   0  0  0  0  0  0  0  0  0  0  0  0
    5.8550   -2.2977    0.0000 N   0  0  0  0  0  0  0  0  0  0  0  0
    4.5981    2.4470    0.0000 N   0  0  0  0  0  0  0  0  0  0  0  0
    4.5981   -3.5530    0.0000 C   0  0  0  0  0  0  0  0  0  0  0  0
    3.7320   -3.0530    0.0000 C   0  0  0  0  0  0  0  0  0  0  0  0
    4.5981   -4.5530    0.0000 C   0  0  0  0  0  0  0  0  0  0  0  0
    3.7320   -2.0530    0.0000 C   0  0  0  0  0  0  0  0  0  0  0  0
    5.5443   -3.2482    0.0000 C   0  0  0  0  0  0  0  0  0  0  0  0
    2.8660   -3.5530    0.0000 C   0  0  0  0  0  0  0  0  0  0  0  0
    3.7320   -5.0530    0.0000 C   0  0  0  0  0  0  0  0  0  0  0  0
    2.8660   -1.5530    0.0000 C   0  0  0  0  0  0  0  0  0  0  0  0
    4.5981   -1.5530    0.0000 C   0  0  0  0  0  0  0  0  0  0  0  0
    2.8660   -4.5530    0.0000 C   0  0  0  0  0  0  0  0  0  0  0  0
    3.7320   -0.0530    0.0000 C   0  0  0  0  0  0  0  0  0  0  0  0
    2.8660   -0.5530    0.0000 C   0  0  0  0  0  0  0  0  0  0  0  0
    4.5981   -0.5530    0.0000 C   0  0  0  0  0  0  0  0  0  0  0  0
    5.4641    2.9470    0.0000 C   0  0  0  0  0  0  0  0  0  0  0  0
    4.5981    1.4470    0.0000 C   0  0  0  0  0  0  0  0  0  0  0  0
    6.3301    4.4470    0.0000 C   0  0  0  0  0  0  0  0  0  0  0  0
    5.4641    3.9470    0.0000 C   0  0  0  0  0  0  0  0  0  0  0  0
    6.3301    2.4470    0.0000 C   0  0  0  0  0  0  0  0  0  0  0  0
    7.1962    3.9470    0.0000 C   0  0  0  0  0  0  0  0  0  0  0  0
    7.1962    2.9470    0.0000 C   0  0  0  0  0  0  0  0  0  0  0  0
    6.3301    5.4470    0.0000 C   0  0  0  0  0  0  0  0  0  0  0  0
    2.3291   -3.2430    0.0000 H   0  0  0  0  0  0  0  0  0  0  0  0
    3.7320   -5.6730    0.0000 H   0  0  0  0  0  0  0  0  0  0  0  0
    5.1350   -1.8630    0.0000 H   0  0  0  0  0  0  0  0  0  0  0  0
    2.3291   -4.8630    0.0000 H   0  0  0  0  0  0  0  0  0  0  0  0
    5.7369   -5.4470    0.0000 H   0  0  0  0  0  0  0  0  0  0  0  0
    2.3291   -0.2430    0.0000 H   0  0  0  0  0  0  0  0  0  0  0  0
    5.1350   -0.2430    0.0000 H   0  0  0  0  0  0  0  0  0  0  0  0
    3.1951    1.2570    0.0000 H   0  0  0  0  0  0  0  0  0  0  0  0
    6.4616   -2.1699    0.0000 H   0  0  0  0  0  0  0  0  0  0  0  0
    5.4409   -1.8362    0.0000 H   0  0  0  0  0  0  0  0  0  0  0  0
    4.0611    2.7570    0.0000 H   0  0  0  0  0  0  0  0  0  0  0  0
    4.9272    4.2570    0.0000 H   0  0  0  0  0  0  0  0  0  0  0  0
    6.3301    1.8270    0.0000 H   0  0  0  0  0  0  0  0  0  0  0  0
    7.7331    4.2570    0.0000 H   0  0  0  0  0  0  0  0  0  0  0  0
    7.7331    2.6370    0.0000 H   0  0  0  0  0  0  0  0  0  0  0  0
    6.9501    5.4470    0.0000 H   0  0  0  0  0  0  0  0  0  0  0  0
    6.3301    6.0670    0.0000 H   0  0  0  0  0  0  0  0  0  0  0  0
    5.7101    5.4470    0.0000 H   0  0  0  0  0  0  0  0  0  0  0  0
  1 15  1  0  0  0  0
  2 22  2  0  0  0  0
  3  4  1  0  0  0  0
  3 10  1  0  0  0  0
  3 33  1  0  0  0  0
  4 12  2  0  0  0  0
  5 18  1  0  0  0  0
  5 22  1  0  0  0  0
  5 36  1  0  0  0  0
  6 12  1  0  0  0  0
  6 37  1  0  0  0  0
  6 38  1  0  0  0  0
  7 21  1  0  0  0  0
  7 22  1  0  0  0  0
  7 39  1  0  0  0  0
  8  9  2  0  0  0  0
  8 10  1  0  0  0  0
  8 12  1  0  0  0  0
  9 11  1  0  0  0  0
  9 13  1  0  0  0  0
 10 14  2  0  0  0  0
 11 15  2  0  0  0  0
 11 16  1  0  0  0  0
 13 17  2  0  0  0  0
 13 29  1  0  0  0  0
 14 17  1  0  0  0  0
 14 30  1  0  0  0  0
 15 19  1  0  0  0  0
 16 20  2  0  0  0  0
 16 31  1  0  0  0  0
 17 32  1  0  0  0  0
 18 19  2  0  0  0  0
 18 20  1  0  0  0  0
 19 34  1  0  0  0  0
 20 35  1  0  0  0  0
 21 24  1  0  0  0  0
 21 25  2  0  0  0  0
 23 24  2  0  0  0  0
 23 26  1  0  0  0  0
 23 28  1  0  0  0  0
 24 40  1  0  0  0  0
 25 27  1  0  0  0  0
 25 41  1  0  0  0  0
 26 27  2  0  0  0  0
 26 42  1  0  0  0  0
 27 43  1  0  0  0  0
 28 44  1  0  0  0  0
 28 45  1  0  0  0  0
 28 46  1  0  0  0  0
M  END
> <PUBCHEM_COMPOUND_CID>
11176299

> <PUBCHEM_COMPOUND_CANONICALIZED>
1

> <PUBCHEM_CACTVS_COMPLEXITY>
549

> <PUBCHEM_CACTVS_HBOND_ACCEPTOR>
4

> <PUBCHEM_CACTVS_HBOND_DONOR>
4

> <PUBCHEM_CACTVS_ROTATABLE_BOND>
3

> <PUBCHEM_CACTVS_SUBSKEYS>
AAADceB7oQAAAAAAAAAAAAAAAAAAAWAAAAAwYMAAAAAAAFgB9AAAHwAYAAAADAiBHggz8PLjAACqAyZicACSBAIhAgAcuSAwZJiIIKLA0dGEpAh4nAJIyCcQgMAOiAAAQAASAAAQAACAACQAAAAAAAAAAA==

> <PUBCHEM_IUPAC_OPENEYE_NAME>
1-[4-(3-amino-1H-indazol-4-yl)-3-fluoro-phenyl]-3-(m-tolyl)urea

> <PUBCHEM_IUPAC_CAS_NAME>
1-[4-(3-amino-1H-indazol-4-yl)-3-fluorophenyl]-3-(3-methylphenyl)urea

> <PUBCHEM_IUPAC_NAME_MARKUP>
1-[4-(3-amino-1<I>H</I>-indazol-4-yl)-3-fluorophenyl]-3-(3-methylphenyl)urea

> <PUBCHEM_IUPAC_NAME>
1-[4-(3-amino-1H-indazol-4-yl)-3-fluorophenyl]-3-(3-methylphenyl)urea

> <PUBCHEM_IUPAC_SYSTEMATIC_NAME>
1-[4-(3-azanyl-1H-indazol-4-yl)-3-fluoranyl-phenyl]-3-(3-methylphenyl)urea

> <PUBCHEM_IUPAC_TRADITIONAL_NAME>
1-[4-(3-amino-1H-indazol-4-yl)-3-fluoro-phenyl]-3-(m-tolyl)urea

> <PUBCHEM_IUPAC_INCHI>
InChI=1S/C21H18FN5O/c1-12-4-2-5-13(10-12)24-21(28)25-14-8-9-15(17(22)11-14)16-6-3-7-18-19(16)20(23)27-26-18/h2-11H,1H3,(H3,23,26,27)(H2,24,25,28)

> <PUBCHEM_IUPAC_INCHIKEY>
QDOBTYVGPGFRCM-UHFFFAOYSA-N

> <PUBCHEM_XLOGP3_AA>
3.9

> <PUBCHEM_EXACT_MASS>
375.14953838

> <PUBCHEM_MOLECULAR_FORMULA>
C21H18FN5O

> <PUBCHEM_MOLECULAR_WEIGHT>
375.4

> <PUBCHEM_SMILES>
CC1=CC(=CC=C1)NC(=O)NC2=CC(=C(C=C2)C3=C4C(=CC=C3)NN=C4N)F

> <PUBCHEM_OPENEYE_CAN_SMILES>
CC1=CC(=CC=C1)NC(=O)NC2=CC(=C(C=C2)C3=C4C(=CC=C3)NN=C4N)F

> <PUBCHEM_OPENEYE_ISO_SMILES>
CC1=CC(=CC=C1)NC(=O)NC2=CC(=C(C=C2)C3=C4C(=CC=C3)NN=C4N)F

> <PUBCHEM_CACTVS_TPSA>
95.8

> <PUBCHEM_MONOISOTOPIC_WEIGHT>
375.14953838

> <PUBCHEM_TOTAL_CHARGE>
0

> <PUBCHEM_HEAVY_ATOM_COUNT>
28

> <PUBCHEM_ATOM_DEF_STEREO_COUNT>
0

> <PUBCHEM_ATOM_UDEF_STEREO_COUNT>
0

> <PUBCHEM_BOND_DEF_STEREO_COUNT>
0

> <PUBCHEM_BOND_UDEF_STEREO_COUNT>
0

> <PUBCHEM_ISOTOPIC_ATOM_COUNT>
0

> <PUBCHEM_COMPONENT_COUNT>
1

> <PUBCHEM_CACTVS_TAUTO_COUNT>
-1

> <PUBCHEM_COORDINATE_TYPE>
1
5
255

> <PUBCHEM_BONDANNOTATIONS>
10  14  8
11  15  8
11  16  8
13  17  8
14  17  8
15  19  8
16  20  8
18  19  8
18  20  8
21  24  8
21  25  8
23  24  8
23  26  8
25  27  8
26  27  8
3  10  8
3  4  8
4  12  8
8  10  8
8  12  8
8  9  8
9  13  8

$$$$
