135947974
  -OEChem-03192523472D

 35 37  0     0  0  0  0  0  0999 V2000
    6.6353    0.0996    0.0000 F   0  0  0  0  0  0  0  0  0  0  0  0
    3.9639    3.0768    0.0000 F   0  0  0  0  0  0  0  0  0  0  0  0
    5.9209    3.4893    0.0000 O   0  0  0  0  0  0  0  0  0  0  0  0
    4.6783   -1.9223    0.0000 N   0  0  0  0  0  0  0  0  0  0  0  0
    5.2619   -1.1176    0.0000 N   0  0  0  0  0  0  0  0  0  0  0  0
    2.8660   -2.1176    0.0000 N   0  0  0  0  0  0  0  0  0  0  0  0
    2.0000   -0.6176    0.0000 N   0  0  0  0  0  0  0  0  0  0  0  0
    2.8660    0.8824    0.0000 N   0  0  0  0  0  0  0  0  0  0  0  0
    4.9889   -2.8728    0.0000 C   0  0  0  0  0  0  0  0  0  0  0  0
    3.7320   -1.6176    0.0000 C   0  0  0  0  0  0  0  0  0  0  0  0
    3.7320   -0.6176    0.0000 C   0  0  0  0  0  0  0  0  0  0  0  0
    4.6783   -0.3128    0.0000 C   0  0  0  0  0  0  0  0  0  0  0  0
    5.9674   -3.0790    0.0000 C   0  0  0  0  0  0  0  0  0  0  0  0
    4.3211   -3.6171    0.0000 C   0  0  0  0  0  0  0  0  0  0  0  0
    4.9889    0.6377    0.0000 C   0  0  0  0  0  0  0  0  0  0  0  0
    2.8660   -0.1176    0.0000 C   0  0  0  0  0  0  0  0  0  0  0  0
    5.9674    0.8439    0.0000 C   0  0  0  0  0  0  0  0  0  0  0  0
    4.3211    1.3820    0.0000 C   0  0  0  0  0  0  0  0  0  0  0  0
    2.0000   -1.6176    0.0000 C   0  0  0  0  0  0  0  0  0  0  0  0
    4.6318    2.3325    0.0000 C   0  0  0  0  0  0  0  0  0  0  0  0
    6.2781    1.7944    0.0000 C   0  0  0  0  0  0  0  0  0  0  0  0
    5.6103    2.5387    0.0000 C   0  0  0  0  0  0  0  0  0  0  0  0
    5.1815   -3.4621    0.0000 H   0  0  0  0  0  0  0  0  0  0  0  0
    5.8396   -3.6857    0.0000 H   0  0  0  0  0  0  0  0  0  0  0  0
    6.5741   -3.2069    0.0000 H   0  0  0  0  0  0  0  0  0  0  0  0
    6.0953   -2.4724    0.0000 H   0  0  0  0  0  0  0  0  0  0  0  0
    3.8596   -3.2030    0.0000 H   0  0  0  0  0  0  0  0  0  0  0  0
    3.9070   -4.0786    0.0000 H   0  0  0  0  0  0  0  0  0  0  0  0
    4.7826   -4.0312    0.0000 H   0  0  0  0  0  0  0  0  0  0  0  0
    3.7144    1.2541    0.0000 H   0  0  0  0  0  0  0  0  0  0  0  0
    1.4631   -1.9276    0.0000 H   0  0  0  0  0  0  0  0  0  0  0  0
    6.8848    1.9223    0.0000 H   0  0  0  0  0  0  0  0  0  0  0  0
    2.3291    1.1924    0.0000 H   0  0  0  0  0  0  0  0  0  0  0  0
    3.4030    1.1924    0.0000 H   0  0  0  0  0  0  0  0  0  0  0  0
    6.5276    3.6171    0.0000 H   0  0  0  0  0  0  0  0  0  0  0  0
  1 17  1  0  0  0  0
  2 20  1  0  0  0  0
  3 22  1  0  0  0  0
  3 35  1  0  0  0  0
  4  5  1  0  0  0  0
  4  9  1  0  0  0  0
  4 10  1  0  0  0  0
  5 12  2  0  0  0  0
  6 10  2  0  0  0  0
  6 19  1  0  0  0  0
  7 16  1  0  0  0  0
  7 19  2  0  0  0  0
  8 16  1  0  0  0  0
  8 33  1  0  0  0  0
  8 34  1  0  0  0  0
  9 13  1  0  0  0  0
  9 14  1  0  0  0  0
  9 23  1  0  0  0  0
 10 11  1  0  0  0  0
 11 12  1  0  0  0  0
 11 16  2  0  0  0  0
 12 15  1  0  0  0  0
 13 24  1  0  0  0  0
 13 25  1  0  0  0  0
 13 26  1  0  0  0  0
 14 27  1  0  0  0  0
 14 28  1  0  0  0  0
 14 29  1  0  0  0  0
 15 17  1  0  0  0  0
 15 18  2  0  0  0  0
 17 21  2  0  0  0  0
 18 20  1  0  0  0  0
 18 30  1  0  0  0  0
 19 31  1  0  0  0  0
 20 22  2  0  0  0  0
 21 22  1  0  0  0  0
 21 32  1  0  0  0  0
M  END
> <PUBCHEM_COMPOUND_CID>
135947974

> <PUBCHEM_COMPOUND_CANONICALIZED>
1

> <PUBCHEM_CACTVS_COMPLEXITY>
401

> <PUBCHEM_CACTVS_HBOND_ACCEPTOR>
7

> <PUBCHEM_CACTVS_HBOND_DONOR>
2

> <PUBCHEM_CACTVS_ROTATABLE_BOND>
2

> <PUBCHEM_CACTVS_SUBSKEYS>
AAADccBzoYAAAAAAAAAAAAAAAAAAAWAAAAA8QAAAAAAAAFgB/AAAHwAYCAAADCzBnww3tt5IEgCiAyZjZACShCsxoKAV2CAuTJiILqLC2NOE9AhsyBPI2CeQ0OEOIAAAAAAAAABAAAAAAAAAAAAAAAAAAA==

> <PUBCHEM_IUPAC_OPENEYE_NAME>
4-(4-amino-1-isopropyl-pyrazolo[3,4-d]pyrimidin-3-yl)-2,5-difluoro-phenol

> <PUBCHEM_IUPAC_CAS_NAME>
4-(4-amino-1-propan-2-yl-3-pyrazolo[3,4-d]pyrimidinyl)-2,5-difluorophenol

> <PUBCHEM_IUPAC_NAME_MARKUP>
4-(4-amino-1-propan-2-ylpyrazolo[3,4-d]pyrimidin-3-yl)-2,5-difluorophenol

> <PUBCHEM_IUPAC_NAME>
4-(4-amino-1-propan-2-ylpyrazolo[3,4-d]pyrimidin-3-yl)-2,5-difluorophenol

> <PUBCHEM_IUPAC_SYSTEMATIC_NAME>
4-(4-azanyl-1-propan-2-yl-pyrazolo[3,4-d]pyrimidin-3-yl)-2,5-bis(fluoranyl)phenol

> <PUBCHEM_IUPAC_TRADITIONAL_NAME>
4-(4-amino-1-isopropyl-pyrazolo[3,4-d]pyrimidin-3-yl)-2,5-difluoro-phenol

> <PUBCHEM_IUPAC_INCHI>
InChI=1S/C14H13F2N5O/c1-6(2)21-14-11(13(17)18-5-19-14)12(20-21)7-3-9(16)10(22)4-8(7)15/h3-6,22H,1-2H3,(H2,17,18,19)

> <PUBCHEM_IUPAC_INCHIKEY>
DYEJYFAQYRMVFS-UHFFFAOYSA-N

> <PUBCHEM_XLOGP3_AA>
2

> <PUBCHEM_EXACT_MASS>
305.10881638

> <PUBCHEM_MOLECULAR_FORMULA>
C14H13F2N5O

> <PUBCHEM_MOLECULAR_WEIGHT>
305.28

> <PUBCHEM_SMILES>
CC(C)N1C2=NC=NC(=C2C(=N1)C3=CC(=C(C=C3F)O)F)N

> <PUBCHEM_OPENEYE_CAN_SMILES>
CC(C)N1C2=NC=NC(=C2C(=N1)C3=CC(=C(C=C3F)O)F)N

> <PUBCHEM_OPENEYE_ISO_SMILES>
CC(C)N1C2=NC=NC(=C2C(=N1)C3=CC(=C(C=C3F)O)F)N

> <PUBCHEM_CACTVS_TPSA>
89.9

> <PUBCHEM_MONOISOTOPIC_WEIGHT>
305.10881638

> <PUBCHEM_TOTAL_CHARGE>
0

> <PUBCHEM_HEAVY_ATOM_COUNT>
22

> <PUBCHEM_ATOM_DEF_STEREO_COUNT>
0

> <PUBCHEM_ATOM_UDEF_STEREO_COUNT>
0

> <PUBCHEM_BOND_DEF_STEREO_COUNT>
0

> <PUBCHEM_BOND_UDEF_STEREO_COUNT>
0

> <PUBCHEM_ISOTOPIC_ATOM_COUNT>
0

> <PUBCHEM_COMPONENT_COUNT>
1

> <PUBCHEM_CACTVS_TAUTO_COUNT>
-1

> <PUBCHEM_COORDINATE_TYPE>
1
5
255

> <PUBCHEM_BONDANNOTATIONS>
10  11  8
11  12  8
11  16  8
15  17  8
15  18  8
17  21  8
18  20  8
20  22  8
21  22  8
4  10  8
4  5  8
5  12  8
6  10  8
6  19  8
7  16  8
7  19  8

$$$$
