11210054
  -OEChem-03202502412D

 42 44  0     0  0  0  0  0  0999 V2000
    5.0604   -0.9365    0.0000 S   0  0  0  0  0  0  0  0  0  0  0  0
    3.6756   -2.0580    0.0000 O   0  0  0  0  0  0  0  0  0  0  0  0
   12.0932    0.0580    0.0000 O   0  0  0  0  0  0  0  0  0  0  0  0
    3.5823   -0.2784    0.0000 N   0  0  0  0  0  0  0  0  0  0  0  0
    6.8970    0.0580    0.0000 N   0  0  0  0  0  0  0  0  0  0  0  0
    8.6291    0.0580    0.0000 N   0  0  0  0  0  0  0  0  0  0  0  0
    7.7631    1.5580    0.0000 N   0  0  0  0  0  0  0  0  0  0  0  0
    4.2514    0.4647    0.0000 C   0  0  0  0  0  0  0  0  0  0  0  0
    5.1650    0.0580    0.0000 C   0  0  0  0  0  0  0  0  0  0  0  0
    2.5878   -0.1739    0.0000 C   0  0  0  0  0  0  0  0  0  0  0  0
    4.0823   -1.1444    0.0000 C   0  0  0  0  0  0  0  0  0  0  0  0
    6.0310    0.5580    0.0000 C   0  0  0  0  0  0  0  0  0  0  0  0
    4.0435    1.4429    0.0000 C   0  0  0  0  0  0  0  0  0  0  0  0
    2.0000   -0.9829    0.0000 C   0  0  0  0  0  0  0  0  0  0  0  0
    6.0310    1.5580    0.0000 C   0  0  0  0  0  0  0  0  0  0  0  0
    7.7631    0.5580    0.0000 C   0  0  0  0  0  0  0  0  0  0  0  0
    9.4951    0.5580    0.0000 C   0  0  0  0  0  0  0  0  0  0  0  0
    6.8970    2.0580    0.0000 C   0  0  0  0  0  0  0  0  0  0  0  0
   10.3611    0.0580    0.0000 C   0  0  0  0  0  0  0  0  0  0  0  0
    9.4951    1.5580    0.0000 C   0  0  0  0  0  0  0  0  0  0  0  0
   11.2272    0.5580    0.0000 C   0  0  0  0  0  0  0  0  0  0  0  0
   10.3611    2.0580    0.0000 C   0  0  0  0  0  0  0  0  0  0  0  0
   11.2272    1.5580    0.0000 C   0  0  0  0  0  0  0  0  0  0  0  0
   12.9592    0.5580    0.0000 C   0  0  0  0  0  0  0  0  0  0  0  0
    2.7587    0.4221    0.0000 H   0  0  0  0  0  0  0  0  0  0  0  0
    2.0305    0.0979    0.0000 H   0  0  0  0  0  0  0  0  0  0  0  0
    4.6500    1.5718    0.0000 H   0  0  0  0  0  0  0  0  0  0  0  0
    3.9146    2.0493    0.0000 H   0  0  0  0  0  0  0  0  0  0  0  0
    3.4371    1.3140    0.0000 H   0  0  0  0  0  0  0  0  0  0  0  0
    1.4984   -0.6185    0.0000 H   0  0  0  0  0  0  0  0  0  0  0  0
    1.6356   -1.4845    0.0000 H   0  0  0  0  0  0  0  0  0  0  0  0
    2.5016   -1.3473    0.0000 H   0  0  0  0  0  0  0  0  0  0  0  0
    5.4941    1.8680    0.0000 H   0  0  0  0  0  0  0  0  0  0  0  0
    8.6291   -0.5620    0.0000 H   0  0  0  0  0  0  0  0  0  0  0  0
    6.8970    2.6780    0.0000 H   0  0  0  0  0  0  0  0  0  0  0  0
   10.3611   -0.5620    0.0000 H   0  0  0  0  0  0  0  0  0  0  0  0
    8.9582    1.8680    0.0000 H   0  0  0  0  0  0  0  0  0  0  0  0
   10.3611    2.6780    0.0000 H   0  0  0  0  0  0  0  0  0  0  0  0
   11.7641    1.8680    0.0000 H   0  0  0  0  0  0  0  0  0  0  0  0
   13.2692    0.0211    0.0000 H   0  0  0  0  0  0  0  0  0  0  0  0
   13.4961    0.8680    0.0000 H   0  0  0  0  0  0  0  0  0  0  0  0
   12.6492    1.0949    0.0000 H   0  0  0  0  0  0  0  0  0  0  0  0
  1  9  1  0  0  0  0
  1 11  1  0  0  0  0
  2 11  2  0  0  0  0
  3 21  1  0  0  0  0
  3 24  1  0  0  0  0
  4  8  1  0  0  0  0
  4 10  1  0  0  0  0
  4 11  1  0  0  0  0
  5 12  2  0  0  0  0
  5 16  1  0  0  0  0
  6 16  1  0  0  0  0
  6 17  1  0  0  0  0
  6 34  1  0  0  0  0
  7 16  2  0  0  0  0
  7 18  1  0  0  0  0
  8  9  2  0  0  0  0
  8 13  1  0  0  0  0
  9 12  1  0  0  0  0
 10 14  1  0  0  0  0
 10 25  1  0  0  0  0
 10 26  1  0  0  0  0
 12 15  1  0  0  0  0
 13 27  1  0  0  0  0
 13 28  1  0  0  0  0
 13 29  1  0  0  0  0
 14 30  1  0  0  0  0
 14 31  1  0  0  0  0
 14 32  1  0  0  0  0
 15 18  2  0  0  0  0
 15 33  1  0  0  0  0
 17 19  2  0  0  0  0
 17 20  1  0  0  0  0
 18 35  1  0  0  0  0
 19 21  1  0  0  0  0
 19 36  1  0  0  0  0
 20 22  2  0  0  0  0
 20 37  1  0  0  0  0
 21 23  2  0  0  0  0
 22 23  1  0  0  0  0
 22 38  1  0  0  0  0
 23 39  1  0  0  0  0
 24 40  1  0  0  0  0
 24 41  1  0  0  0  0
 24 42  1  0  0  0  0
M  END
> <PUBCHEM_COMPOUND_CID>
11210054

> <PUBCHEM_COMPOUND_CANONICALIZED>
1

> <PUBCHEM_CACTVS_COMPLEXITY>
499

> <PUBCHEM_CACTVS_HBOND_ACCEPTOR>
6

> <PUBCHEM_CACTVS_HBOND_DONOR>
1

> <PUBCHEM_CACTVS_ROTATABLE_BOND>
5

> <PUBCHEM_CACTVS_SUBSKEYS>
AAADceB7sABAAAAAAAAAAAAAAAAAAQAAAAA8QAAAAAAAAAABwAAAHgQQAAAACAzB1gY/1pfIFAioATRndACCiClxIrAJ2CA+bJiMLqLk+duENChu1hvI6CeQUAMAAAAAAgAAAAAAAAAEAAAAAAAAAAAAAA==

> <PUBCHEM_IUPAC_OPENEYE_NAME>
3-ethyl-5-[2-(3-methoxyanilino)pyrimidin-4-yl]-4-methyl-thiazol-2-one

> <PUBCHEM_IUPAC_CAS_NAME>
3-ethyl-5-[2-(3-methoxyanilino)-4-pyrimidinyl]-4-methyl-2-thiazolone

> <PUBCHEM_IUPAC_NAME_MARKUP>
3-ethyl-5-[2-(3-methoxyanilino)pyrimidin-4-yl]-4-methyl-1,3-thiazol-2-one

> <PUBCHEM_IUPAC_NAME>
3-ethyl-5-[2-(3-methoxyanilino)pyrimidin-4-yl]-4-methyl-1,3-thiazol-2-one

> <PUBCHEM_IUPAC_SYSTEMATIC_NAME>
3-ethyl-5-[2-[(3-methoxyphenyl)amino]pyrimidin-4-yl]-4-methyl-1,3-thiazol-2-one

> <PUBCHEM_IUPAC_TRADITIONAL_NAME>
3-ethyl-5-[2-(m-anisidino)pyrimidin-4-yl]-4-methyl-4-thiazolin-2-one

> <PUBCHEM_IUPAC_INCHI>
InChI=1S/C17H18N4O2S/c1-4-21-11(2)15(24-17(21)22)14-8-9-18-16(20-14)19-12-6-5-7-13(10-12)23-3/h5-10H,4H2,1-3H3,(H,18,19,20)

> <PUBCHEM_IUPAC_INCHIKEY>
NLUPJKQOKWBWFC-UHFFFAOYSA-N

> <PUBCHEM_XLOGP3_AA>
3

> <PUBCHEM_EXACT_MASS>
342.11504700

> <PUBCHEM_MOLECULAR_FORMULA>
C17H18N4O2S

> <PUBCHEM_MOLECULAR_WEIGHT>
342.4

> <PUBCHEM_SMILES>
CCN1C(=C(SC1=O)C2=NC(=NC=C2)NC3=CC(=CC=C3)OC)C

> <PUBCHEM_OPENEYE_CAN_SMILES>
CCN1C(=C(SC1=O)C2=NC(=NC=C2)NC3=CC(=CC=C3)OC)C

> <PUBCHEM_OPENEYE_ISO_SMILES>
CCN1C(=C(SC1=O)C2=NC(=NC=C2)NC3=CC(=CC=C3)OC)C

> <PUBCHEM_CACTVS_TPSA>
92.7

> <PUBCHEM_MONOISOTOPIC_WEIGHT>
342.11504700

> <PUBCHEM_TOTAL_CHARGE>
0

> <PUBCHEM_HEAVY_ATOM_COUNT>
24

> <PUBCHEM_ATOM_DEF_STEREO_COUNT>
0

> <PUBCHEM_ATOM_UDEF_STEREO_COUNT>
0

> <PUBCHEM_BOND_DEF_STEREO_COUNT>
0

> <PUBCHEM_BOND_UDEF_STEREO_COUNT>
0

> <PUBCHEM_ISOTOPIC_ATOM_COUNT>
0

> <PUBCHEM_COMPONENT_COUNT>
1

> <PUBCHEM_CACTVS_TAUTO_COUNT>
-1

> <PUBCHEM_COORDINATE_TYPE>
1
5
255

> <PUBCHEM_BONDANNOTATIONS>
1  11  8
1  9  8
12  15  8
15  18  8
17  19  8
17  20  8
19  21  8
20  22  8
21  23  8
22  23  8
4  11  8
4  8  8
5  12  8
5  16  8
7  16  8
7  18  8
8  9  8

$$$$
