49830412
  -OEChem-03202503402D

 62 67  0     0  0  0  0  0  0999 V2000
   11.9851   -2.0627    0.0000 S   0  0  0  0  0  0  0  0  0  0  0  0
    5.0000   -2.1240    0.0000 O   0  0  0  0  0  0  0  0  0  0  0  0
   11.0388   -0.7580    0.0000 N   0  0  0  0  0  0  0  0  0  0  0  0
   10.0878   -2.0670    0.0000 N   0  0  0  0  0  0  0  0  0  0  0  0
    8.8006    0.7100    0.0000 N   0  0  0  0  0  0  0  0  0  0  0  0
    6.5000   -2.9901    0.0000 N   0  0  0  0  0  0  0  0  0  0  0  0
    7.5135    1.8689    0.0000 N   0  0  0  0  0  0  0  0  0  0  0  0
    9.1607    2.4042    0.0000 N   0  0  0  0  0  0  0  0  0  0  0  0
   10.0878   -0.4490    0.0000 C   0  0  0  0  0  0  0  0  0  0  0  0
    9.5000   -1.2580    0.0000 C   0  0  0  0  0  0  0  0  0  0  0  0
    8.5000   -1.2580    0.0000 C   0  0  0  0  0  0  0  0  0  0  0  0
   11.0388   -1.7580    0.0000 C   0  0  0  0  0  0  0  0  0  0  0  0
    9.7788    0.5021    0.0000 C   0  0  0  0  0  0  0  0  0  0  0  0
   11.9851   -0.4533    0.0000 C   0  0  0  0  0  0  0  0  0  0  0  0
    8.0000   -2.1240    0.0000 C   0  0  0  0  0  0  0  0  0  0  0  0
    7.0000   -2.1240    0.0000 C   0  0  0  0  0  0  0  0  0  0  0  0
    8.0000   -0.3920    0.0000 C   0  0  0  0  0  0  0  0  0  0  0  0
   12.5687   -1.2580    0.0000 C   0  0  0  0  0  0  0  0  0  0  0  0
   10.4479    1.2452    0.0000 C   0  0  0  0  0  0  0  0  0  0  0  0
    6.5000   -1.2580    0.0000 C   0  0  0  0  0  0  0  0  0  0  0  0
    7.0000   -0.3920    0.0000 C   0  0  0  0  0  0  0  0  0  0  0  0
    8.4916    1.6610    0.0000 C   0  0  0  0  0  0  0  0  0  0  0  0
    5.0000   -3.8561    0.0000 C   0  0  0  0  0  0  0  0  0  0  0  0
    5.5000   -2.9901    0.0000 C   0  0  0  0  0  0  0  0  0  0  0  0
   10.1389    2.1963    0.0000 C   0  0  0  0  0  0  0  0  0  0  0  0
    7.2044    2.8200    0.0000 C   0  0  0  0  0  0  0  0  0  0  0  0
    4.0000   -3.8561    0.0000 C   0  0  0  0  0  0  0  0  0  0  0  0
    7.8736    3.5631    0.0000 C   0  0  0  0  0  0  0  0  0  0  0  0
    6.2263    3.0279    0.0000 C   0  0  0  0  0  0  0  0  0  0  0  0
    7.5646    4.5142    0.0000 C   0  0  0  0  0  0  0  0  0  0  0  0
    3.5000   -2.9901    0.0000 C   0  0  0  0  0  0  0  0  0  0  0  0
    3.5000   -4.7221    0.0000 C   0  0  0  0  0  0  0  0  0  0  0  0
    8.8517    3.3552    0.0000 C   0  0  0  0  0  0  0  0  0  0  0  0
    5.9173    3.9790    0.0000 C   0  0  0  0  0  0  0  0  0  0  0  0
    6.5864    4.7221    0.0000 C   0  0  0  0  0  0  0  0  0  0  0  0
    2.5000   -2.9901    0.0000 C   0  0  0  0  0  0  0  0  0  0  0  0
    2.5000   -4.7221    0.0000 C   0  0  0  0  0  0  0  0  0  0  0  0
    2.0000   -3.8561    0.0000 C   0  0  0  0  0  0  0  0  0  0  0  0
   12.1777    0.1360    0.0000 H   0  0  0  0  0  0  0  0  0  0  0  0
    8.3100   -2.6610    0.0000 H   0  0  0  0  0  0  0  0  0  0  0  0
    8.3100    0.1450    0.0000 H   0  0  0  0  0  0  0  0  0  0  0  0
   13.1887   -1.2580    0.0000 H   0  0  0  0  0  0  0  0  0  0  0  0
   11.0544    1.1163    0.0000 H   0  0  0  0  0  0  0  0  0  0  0  0
    5.8800   -1.2580    0.0000 H   0  0  0  0  0  0  0  0  0  0  0  0
    6.6900    0.1450    0.0000 H   0  0  0  0  0  0  0  0  0  0  0  0
    6.8100   -3.5270    0.0000 H   0  0  0  0  0  0  0  0  0  0  0  0
    4.8923   -4.4667    0.0000 H   0  0  0  0  0  0  0  0  0  0  0  0
    5.5826   -4.0681    0.0000 H   0  0  0  0  0  0  0  0  0  0  0  0
   10.5537    2.6570    0.0000 H   0  0  0  0  0  0  0  0  0  0  0  0
    7.0986    1.4082    0.0000 H   0  0  0  0  0  0  0  0  0  0  0  0
    5.8114    2.5672    0.0000 H   0  0  0  0  0  0  0  0  0  0  0  0
    7.9794    4.9750    0.0000 H   0  0  0  0  0  0  0  0  0  0  0  0
    3.8100   -2.4531    0.0000 H   0  0  0  0  0  0  0  0  0  0  0  0
    3.8100   -5.2590    0.0000 H   0  0  0  0  0  0  0  0  0  0  0  0
    8.7228    2.7488    0.0000 H   0  0  0  0  0  0  0  0  0  0  0  0
    9.4582    3.2263    0.0000 H   0  0  0  0  0  0  0  0  0  0  0  0
    8.9806    3.9617    0.0000 H   0  0  0  0  0  0  0  0  0  0  0  0
    5.3108    4.1079    0.0000 H   0  0  0  0  0  0  0  0  0  0  0  0
    6.3948    5.3118    0.0000 H   0  0  0  0  0  0  0  0  0  0  0  0
    2.1900   -2.4531    0.0000 H   0  0  0  0  0  0  0  0  0  0  0  0
    2.1900   -5.2590    0.0000 H   0  0  0  0  0  0  0  0  0  0  0  0
    1.3800   -3.8561    0.0000 H   0  0  0  0  0  0  0  0  0  0  0  0
  1 12  1  0  0  0  0
  1 18  1  0  0  0  0
  2 24  2  0  0  0  0
  3  9  1  0  0  0  0
  3 12  1  0  0  0  0
  3 14  1  0  0  0  0
  4 10  1  0  0  0  0
  4 12  2  0  0  0  0
  5 13  2  0  0  0  0
  5 22  1  0  0  0  0
  6 16  1  0  0  0  0
  6 24  1  0  0  0  0
  6 46  1  0  0  0  0
  7 22  1  0  0  0  0
  7 26  1  0  0  0  0
  7 50  1  0  0  0  0
  8 22  2  0  0  0  0
  8 25  1  0  0  0  0
  9 10  2  0  0  0  0
  9 13  1  0  0  0  0
 10 11  1  0  0  0  0
 11 15  2  0  0  0  0
 11 17  1  0  0  0  0
 13 19  1  0  0  0  0
 14 18  2  0  0  0  0
 14 39  1  0  0  0  0
 15 16  1  0  0  0  0
 15 40  1  0  0  0  0
 16 20  2  0  0  0  0
 17 21  2  0  0  0  0
 17 41  1  0  0  0  0
 18 42  1  0  0  0  0
 19 25  2  0  0  0  0
 19 43  1  0  0  0  0
 20 21  1  0  0  0  0
 20 44  1  0  0  0  0
 21 45  1  0  0  0  0
 23 24  1  0  0  0  0
 23 27  1  0  0  0  0
 23 47  1  0  0  0  0
 23 48  1  0  0  0  0
 25 49  1  0  0  0  0
 26 28  1  0  0  0  0
 26 29  2  0  0  0  0
 27 31  2  0  0  0  0
 27 32  1  0  0  0  0
 28 30  2  0  0  0  0
 28 33  1  0  0  0  0
 29 34  1  0  0  0  0
 29 51  1  0  0  0  0
 30 35  1  0  0  0  0
 30 52  1  0  0  0  0
 31 36  1  0  0  0  0
 31 53  1  0  0  0  0
 32 37  2  0  0  0  0
 32 54  1  0  0  0  0
 33 55  1  0  0  0  0
 33 56  1  0  0  0  0
 33 57  1  0  0  0  0
 34 35  2  0  0  0  0
 34 58  1  0  0  0  0
 35 59  1  0  0  0  0
 36 38  2  0  0  0  0
 36 60  1  0  0  0  0
 37 38  1  0  0  0  0
 37 61  1  0  0  0  0
 38 62  1  0  0  0  0
M  END
> <PUBCHEM_COMPOUND_CID>
49830412

> <PUBCHEM_COMPOUND_CANONICALIZED>
1

> <PUBCHEM_CACTVS_COMPLEXITY>
780

> <PUBCHEM_CACTVS_HBOND_ACCEPTOR>
6

> <PUBCHEM_CACTVS_HBOND_DONOR>
2

> <PUBCHEM_CACTVS_ROTATABLE_BOND>
7

> <PUBCHEM_CACTVS_SUBSKEYS>
AAADceB7oABAAAAAAAAAAAAAAAAAAWLAAAA8YMEAAAAWAAAB/AAAHgQQAAAADAjF3gS/0ZfMGAisAzV3dACC8K1xGrhJ2C04dJiIaPLA3dGUJAholALIyCcYiMCOAAAAQAACAAAAAACAAAQAAAAAAAAAAA==

> <PUBCHEM_IUPAC_OPENEYE_NAME>
N-[3-[5-[2-(2-methylanilino)pyrimidin-4-yl]imidazo[2,1-b]thiazol-6-yl]phenyl]-2-phenyl-acetamide

> <PUBCHEM_IUPAC_CAS_NAME>
N-[3-[5-[2-(2-methylanilino)-4-pyrimidinyl]-6-imidazo[2,1-b]thiazolyl]phenyl]-2-phenylacetamide

> <PUBCHEM_IUPAC_NAME_MARKUP>
<I>N</I>-[3-[5-[2-(2-methylanilino)pyrimidin-4-yl]imidazo[2,1-b][1,3]thiazol-6-yl]phenyl]-2-phenylacetamide

> <PUBCHEM_IUPAC_NAME>
N-[3-[5-[2-(2-methylanilino)pyrimidin-4-yl]imidazo[2,1-b][1,3]thiazol-6-yl]phenyl]-2-phenylacetamide

> <PUBCHEM_IUPAC_SYSTEMATIC_NAME>
N-[3-[5-[2-[(2-methylphenyl)amino]pyrimidin-4-yl]imidazo[2,1-b][1,3]thiazol-6-yl]phenyl]-2-phenyl-ethanamide

> <PUBCHEM_IUPAC_TRADITIONAL_NAME>
N-[3-[5-[2-(o-toluidino)pyrimidin-4-yl]imidazo[2,1-b]thiazol-6-yl]phenyl]-2-phenyl-acetamide

> <PUBCHEM_IUPAC_INCHI>
InChI=1S/C30H24N6OS/c1-20-8-5-6-13-24(20)33-29-31-15-14-25(34-29)28-27(35-30-36(28)16-17-38-30)22-11-7-12-23(19-22)32-26(37)18-21-9-3-2-4-10-21/h2-17,19H,18H2,1H3,(H,32,37)(H,31,33,34)

> <PUBCHEM_IUPAC_INCHIKEY>
GXKYSFQMTTZPGW-UHFFFAOYSA-N

> <PUBCHEM_XLOGP3_AA>
6.5

> <PUBCHEM_EXACT_MASS>
516.17323058

> <PUBCHEM_MOLECULAR_FORMULA>
C30H24N6OS

> <PUBCHEM_MOLECULAR_WEIGHT>
516.6

> <PUBCHEM_SMILES>
CC1=CC=CC=C1NC2=NC=CC(=N2)C3=C(N=C4N3C=CS4)C5=CC(=CC=C5)NC(=O)CC6=CC=CC=C6

> <PUBCHEM_OPENEYE_CAN_SMILES>
CC1=CC=CC=C1NC2=NC=CC(=N2)C3=C(N=C4N3C=CS4)C5=CC(=CC=C5)NC(=O)CC6=CC=CC=C6

> <PUBCHEM_OPENEYE_ISO_SMILES>
CC1=CC=CC=C1NC2=NC=CC(=N2)C3=C(N=C4N3C=CS4)C5=CC(=CC=C5)NC(=O)CC6=CC=CC=C6

> <PUBCHEM_CACTVS_TPSA>
112

> <PUBCHEM_MONOISOTOPIC_WEIGHT>
516.17323058

> <PUBCHEM_TOTAL_CHARGE>
0

> <PUBCHEM_HEAVY_ATOM_COUNT>
38

> <PUBCHEM_ATOM_DEF_STEREO_COUNT>
0

> <PUBCHEM_ATOM_UDEF_STEREO_COUNT>
0

> <PUBCHEM_BOND_DEF_STEREO_COUNT>
0

> <PUBCHEM_BOND_UDEF_STEREO_COUNT>
0

> <PUBCHEM_ISOTOPIC_ATOM_COUNT>
0

> <PUBCHEM_COMPONENT_COUNT>
1

> <PUBCHEM_CACTVS_TAUTO_COUNT>
-1

> <PUBCHEM_COORDINATE_TYPE>
1
5
255

> <PUBCHEM_BONDANNOTATIONS>
1  12  8
1  18  8
11  15  8
11  17  8
13  19  8
14  18  8
15  16  8
16  20  8
17  21  8
19  25  8
20  21  8
26  28  8
26  29  8
27  31  8
27  32  8
28  30  8
29  34  8
3  12  8
3  14  8
3  9  8
30  35  8
31  36  8
32  37  8
34  35  8
36  38  8
37  38  8
4  10  8
4  12  8
5  13  8
5  22  8
8  22  8
8  25  8
9  10  8

$$$$
