11847343
  -OEChem-03202500072D

 71 76  0     1  0  0  0  0  0999 V2000
    8.1224   -1.3004    0.0000 S   0  0  0  0  0  0  0  0  0  0  0  0
   13.1610    5.5692    0.0000 O   0  0  0  0  0  0  0  0  0  0  0  0
    6.0388   -1.2391    0.0000 O   0  0  0  0  0  0  0  0  0  0  0  0
   11.9760   -0.8803    0.0000 O   0  0  0  0  0  0  0  0  0  0  0  0
    3.5388   -2.1051    0.0000 N   0  0  0  0  0  0  0  0  0  0  0  0
    6.0388   -2.9711    0.0000 N   0  0  0  0  0  0  0  0  0  0  0  0
   12.5430    3.6671    0.0000 N   0  0  0  0  0  0  0  0  0  0  0  0
   10.0197   -2.9141    0.0000 N   0  0  0  0  0  0  0  0  0  0  0  0
   10.3287   -0.3450    0.0000 N   0  0  0  0  0  0  0  0  0  0  0  0
   10.6075   -2.1051    0.0000 N   0  0  0  0  0  0  0  0  0  0  0  0
    2.9511   -1.2961    0.0000 C   0  0  0  0  0  0  0  0  0  0  0  0
    2.9511   -2.9141    0.0000 C   0  0  0  0  0  0  0  0  0  0  0  0
    2.0000   -1.6051    0.0000 C   0  0  0  0  0  0  0  0  0  0  0  0
    2.0000   -2.6051    0.0000 C   0  0  0  0  0  0  0  0  0  0  0  0
    4.5388   -2.1051    0.0000 C   0  0  0  0  0  0  0  0  0  0  0  0
    5.0388   -2.9711    0.0000 C   0  0  2  0  0  0  0  0  0  0  0  0
    4.5388   -3.8372    0.0000 C   0  0  0  0  0  0  0  0  0  0  0  0
    3.5388   -3.8372    0.0000 C   0  0  0  0  0  0  0  0  0  0  0  0
    5.0388   -4.7032    0.0000 C   0  0  0  0  0  0  0  0  0  0  0  0
    6.5388   -2.1051    0.0000 C   0  0  0  0  0  0  0  0  0  0  0  0
   13.5211    3.8750    0.0000 C   0  0  0  0  0  0  0  0  0  0  0  0
   11.8738    4.4102    0.0000 C   0  0  0  0  0  0  0  0  0  0  0  0
    7.5388   -2.1051    0.0000 C   0  0  0  0  0  0  0  0  0  0  0  0
    3.0388   -4.7032    0.0000 C   0  0  0  0  0  0  0  0  0  0  0  0
    4.5388   -5.5692    0.0000 C   0  0  0  0  0  0  0  0  0  0  0  0
   13.8301    4.8261    0.0000 C   0  0  0  0  0  0  0  0  0  0  0  0
   12.1828    5.3613    0.0000 C   0  0  0  0  0  0  0  0  0  0  0  0
   12.2339    2.7160    0.0000 C   0  0  0  0  0  0  0  0  0  0  0  0
    3.5388   -5.5692    0.0000 C   0  0  0  0  0  0  0  0  0  0  0  0
    8.1224   -2.9098    0.0000 C   0  0  0  0  0  0  0  0  0  0  0  0
    9.0687   -2.6051    0.0000 C   0  0  0  0  0  0  0  0  0  0  0  0
    9.0687   -1.6051    0.0000 C   0  0  0  0  0  0  0  0  0  0  0  0
   11.2558    2.5081    0.0000 C   0  0  0  0  0  0  0  0  0  0  0  0
   12.9031    1.9729    0.0000 C   0  0  0  0  0  0  0  0  0  0  0  0
   10.0197   -1.2961    0.0000 C   0  0  0  0  0  0  0  0  0  0  0  0
   11.6159    0.8139    0.0000 C   0  0  0  0  0  0  0  0  0  0  0  0
   10.9468    1.5571    0.0000 C   0  0  0  0  0  0  0  0  0  0  0  0
   12.5941    1.0218    0.0000 C   0  0  0  0  0  0  0  0  0  0  0  0
   11.3069   -0.1371    0.0000 C   0  0  0  0  0  0  0  0  0  0  0  0
    3.4880   -0.9861    0.0000 H   0  0  0  0  0  0  0  0  0  0  0  0
    2.6989   -0.7297    0.0000 H   0  0  0  0  0  0  0  0  0  0  0  0
    2.6989   -3.4805    0.0000 H   0  0  0  0  0  0  0  0  0  0  0  0
    3.4880   -3.2241    0.0000 H   0  0  0  0  0  0  0  0  0  0  0  0
    1.8711   -0.9987    0.0000 H   0  0  0  0  0  0  0  0  0  0  0  0
    1.3834   -1.6699    0.0000 H   0  0  0  0  0  0  0  0  0  0  0  0
    1.3834   -2.5403    0.0000 H   0  0  0  0  0  0  0  0  0  0  0  0
    1.8711   -3.2116    0.0000 H   0  0  0  0  0  0  0  0  0  0  0  0
    5.1214   -1.8931    0.0000 H   0  0  0  0  0  0  0  0  0  0  0  0
    4.4312   -1.4945    0.0000 H   0  0  0  0  0  0  0  0  0  0  0  0
    5.3488   -2.4342    0.0000 H   0  0  0  0  0  0  0  0  0  0  0  0
    6.3488   -3.5081    0.0000 H   0  0  0  0  0  0  0  0  0  0  0  0
    3.2288   -3.3002    0.0000 H   0  0  0  0  0  0  0  0  0  0  0  0
    5.6588   -4.7032    0.0000 H   0  0  0  0  0  0  0  0  0  0  0  0
   13.5427    3.2554    0.0000 H   0  0  0  0  0  0  0  0  0  0  0  0
   14.1351    3.7887    0.0000 H   0  0  0  0  0  0  0  0  0  0  0  0
   11.3264    4.7013    0.0000 H   0  0  0  0  0  0  0  0  0  0  0  0
   11.4921    3.9217    0.0000 H   0  0  0  0  0  0  0  0  0  0  0  0
    2.4188   -4.7032    0.0000 H   0  0  0  0  0  0  0  0  0  0  0  0
    4.8488   -6.1062    0.0000 H   0  0  0  0  0  0  0  0  0  0  0  0
   14.3776    4.5350    0.0000 H   0  0  0  0  0  0  0  0  0  0  0  0
   14.2118    5.3146    0.0000 H   0  0  0  0  0  0  0  0  0  0  0  0
   12.1612    5.9809    0.0000 H   0  0  0  0  0  0  0  0  0  0  0  0
   11.5689    5.4476    0.0000 H   0  0  0  0  0  0  0  0  0  0  0  0
    3.2288   -6.1062    0.0000 H   0  0  0  0  0  0  0  0  0  0  0  0
    7.9298   -3.4992    0.0000 H   0  0  0  0  0  0  0  0  0  0  0  0
   10.8409    2.9689    0.0000 H   0  0  0  0  0  0  0  0  0  0  0  0
   13.5095    2.1018    0.0000 H   0  0  0  0  0  0  0  0  0  0  0  0
   10.3403    1.4282    0.0000 H   0  0  0  0  0  0  0  0  0  0  0  0
   13.0089    0.5611    0.0000 H   0  0  0  0  0  0  0  0  0  0  0  0
   10.2113   -3.5038    0.0000 H   0  0  0  0  0  0  0  0  0  0  0  0
    9.9139    0.1157    0.0000 H   0  0  0  0  0  0  0  0  0  0  0  0
  1 23  1  0  0  0  0
  1 32  1  0  0  0  0
  2 26  1  0  0  0  0
  2 27  1  0  0  0  0
  3 20  2  0  0  0  0
  4 39  2  0  0  0  0
  5 11  1  0  0  0  0
  5 12  1  0  0  0  0
  5 15  1  0  0  0  0
 16  6  1  1  0  0  0
  6 20  1  0  0  0  0
  6 51  1  0  0  0  0
  7 21  1  0  0  0  0
  7 22  1  0  0  0  0
  7 28  1  0  0  0  0
  8 10  1  0  0  0  0
  8 31  1  0  0  0  0
  8 70  1  0  0  0  0
  9 35  1  0  0  0  0
  9 39  1  0  0  0  0
  9 71  1  0  0  0  0
 10 35  2  0  0  0  0
 11 13  1  0  0  0  0
 11 40  1  0  0  0  0
 11 41  1  0  0  0  0
 12 14  1  0  0  0  0
 12 42  1  0  0  0  0
 12 43  1  0  0  0  0
 13 14  1  0  0  0  0
 13 44  1  0  0  0  0
 13 45  1  0  0  0  0
 14 46  1  0  0  0  0
 14 47  1  0  0  0  0
 15 16  1  0  0  0  0
 15 48  1  0  0  0  0
 15 49  1  0  0  0  0
 16 17  1  0  0  0  0
 16 50  1  0  0  0  0
 17 18  2  0  0  0  0
 17 19  1  0  0  0  0
 18 24  1  0  0  0  0
 18 52  1  0  0  0  0
 19 25  2  0  0  0  0
 19 53  1  0  0  0  0
 20 23  1  0  0  0  0
 21 26  1  0  0  0  0
 21 54  1  0  0  0  0
 21 55  1  0  0  0  0
 22 27  1  0  0  0  0
 22 56  1  0  0  0  0
 22 57  1  0  0  0  0
 23 30  2  0  0  0  0
 24 29  2  0  0  0  0
 24 58  1  0  0  0  0
 25 29  1  0  0  0  0
 25 59  1  0  0  0  0
 26 60  1  0  0  0  0
 26 61  1  0  0  0  0
 27 62  1  0  0  0  0
 27 63  1  0  0  0  0
 28 33  2  0  0  0  0
 28 34  1  0  0  0  0
 29 64  1  0  0  0  0
 30 31  1  0  0  0  0
 30 65  1  0  0  0  0
 31 32  2  0  0  0  0
 32 35  1  0  0  0  0
 33 37  1  0  0  0  0
 33 66  1  0  0  0  0
 34 38  2  0  0  0  0
 34 67  1  0  0  0  0
 36 37  2  0  0  0  0
 36 38  1  0  0  0  0
 36 39  1  0  0  0  0
 37 68  1  0  0  0  0
 38 69  1  0  0  0  0
M  END
> <PUBCHEM_COMPOUND_CID>
11847343

> <PUBCHEM_COMPOUND_CANONICALIZED>
1

> <PUBCHEM_CACTVS_COMPLEXITY>
824

> <PUBCHEM_CACTVS_HBOND_ACCEPTOR>
7

> <PUBCHEM_CACTVS_HBOND_DONOR>
3

> <PUBCHEM_CACTVS_ROTATABLE_BOND>
8

> <PUBCHEM_CACTVS_SUBSKEYS>
AAADcfB7sABAAAAAAAAAAAAAAAAAAWLEgAA8YIAAAAAWAAAB/AAAHgQYAAAADCjh3gYx8bPjBAiuAydycACTJIIlChBdub04ZNiKYDLg3dGXpQxwnwL4yYcciYCeCAAAAAAAAAAQAAAAAAAAAAAAAAAAAA==

> <PUBCHEM_IUPAC_OPENEYE_NAME>
3-[(4-morpholinobenzoyl)amino]-N-[(1S)-1-phenyl-2-pyrrolidin-1-yl-ethyl]-1H-thieno[3,2-c]pyrazole-5-carboxamide

> <PUBCHEM_IUPAC_CAS_NAME>
3-[[[4-(4-morpholinyl)phenyl]-oxomethyl]amino]-N-[(1S)-1-phenyl-2-(1-pyrrolidinyl)ethyl]-1H-thieno[3,2-c]pyrazole-5-carboxamide

> <PUBCHEM_IUPAC_NAME_MARKUP>
3-[(4-morpholin-4-ylbenzoyl)amino]-<I>N</I>-[(1<I>S</I>)-1-phenyl-2-pyrrolidin-1-ylethyl]-1<I>H</I>-thieno[3,2-c]pyrazole-5-carboxamide

> <PUBCHEM_IUPAC_NAME>
3-[(4-morpholin-4-ylbenzoyl)amino]-N-[(1S)-1-phenyl-2-pyrrolidin-1-ylethyl]-1H-thieno[3,2-c]pyrazole-5-carboxamide

> <PUBCHEM_IUPAC_SYSTEMATIC_NAME>
3-[(4-morpholin-4-ylphenyl)carbonylamino]-N-[(1S)-1-phenyl-2-pyrrolidin-1-yl-ethyl]-1H-thieno[3,2-c]pyrazole-5-carboxamide

> <PUBCHEM_IUPAC_TRADITIONAL_NAME>
3-[(4-morpholinobenzoyl)amino]-N-[(1S)-1-phenyl-2-pyrrolidino-ethyl]-1H-thieno[3,2-c]pyrazole-5-carboxamide

> <PUBCHEM_IUPAC_INCHI>
InChI=1S/C29H32N6O3S/c36-28(21-8-10-22(11-9-21)35-14-16-38-17-15-35)31-27-26-23(32-33-27)18-25(39-26)29(37)30-24(19-34-12-4-5-13-34)20-6-2-1-3-7-20/h1-3,6-11,18,24H,4-5,12-17,19H2,(H,30,37)(H2,31,32,33,36)/t24-/m1/s1

> <PUBCHEM_IUPAC_INCHIKEY>
ORWIYCURPDKSBI-XMMPIXPASA-N

> <PUBCHEM_XLOGP3_AA>
3.9

> <PUBCHEM_EXACT_MASS>
544.22566008

> <PUBCHEM_MOLECULAR_FORMULA>
C29H32N6O3S

> <PUBCHEM_MOLECULAR_WEIGHT>
544.7

> <PUBCHEM_SMILES>
C1CCN(C1)C[C@H](C2=CC=CC=C2)NC(=O)C3=CC4=C(S3)C(=NN4)NC(=O)C5=CC=C(C=C5)N6CCOCC6

> <PUBCHEM_OPENEYE_CAN_SMILES>
C1CCN(C1)CC(C2=CC=CC=C2)NC(=O)C3=CC4=C(S3)C(=NN4)NC(=O)C5=CC=C(C=C5)N6CCOCC6

> <PUBCHEM_OPENEYE_ISO_SMILES>
C1CCN(C1)C[C@H](C2=CC=CC=C2)NC(=O)C3=CC4=C(S3)C(=NN4)NC(=O)C5=CC=C(C=C5)N6CCOCC6

> <PUBCHEM_CACTVS_TPSA>
131

> <PUBCHEM_MONOISOTOPIC_WEIGHT>
544.22566008

> <PUBCHEM_TOTAL_CHARGE>
0

> <PUBCHEM_HEAVY_ATOM_COUNT>
39

> <PUBCHEM_ATOM_DEF_STEREO_COUNT>
1

> <PUBCHEM_ATOM_UDEF_STEREO_COUNT>
0

> <PUBCHEM_BOND_DEF_STEREO_COUNT>
0

> <PUBCHEM_BOND_UDEF_STEREO_COUNT>
0

> <PUBCHEM_ISOTOPIC_ATOM_COUNT>
0

> <PUBCHEM_COMPONENT_COUNT>
1

> <PUBCHEM_CACTVS_TAUTO_COUNT>
-1

> <PUBCHEM_COORDINATE_TYPE>
1
5
255

> <PUBCHEM_BONDANNOTATIONS>
1  23  8
1  32  8
10  35  8
17  18  8
17  19  8
18  24  8
19  25  8
23  30  8
24  29  8
25  29  8
28  33  8
28  34  8
30  31  8
31  32  8
32  35  8
33  37  8
34  38  8
36  37  8
36  38  8
16  6  5
8  10  8
8  31  8

$$$$
