49830328
  -OEChem-03202503072D

 38 41  0     0  0  0  0  0  0999 V2000
    3.9639    1.9065    0.0000 Cl  0  0  0  0  0  0  0  0  0  0  0  0
    8.1886    3.6819    0.0000 F   0  0  0  0  0  0  0  0  0  0  0  0
    8.9030    0.2923    0.0000 F   0  0  0  0  0  0  0  0  0  0  0  0
    6.8994    2.5252    0.0000 O   0  0  0  0  0  0  0  0  0  0  0  0
    4.6783   -3.0926    0.0000 N   0  0  0  0  0  0  0  0  0  0  0  0
    2.8660   -3.2879    0.0000 N   0  0  0  0  0  0  0  0  0  0  0  0
    7.2566    0.8304    0.0000 N   0  0  0  0  0  0  0  0  0  0  0  0
    5.6103    1.3684    0.0000 N   0  0  0  0  0  0  0  0  0  0  0  0
    4.6783   -1.4831    0.0000 C   0  0  0  0  0  0  0  0  0  0  0  0
    3.7320   -1.7879    0.0000 C   0  0  0  0  0  0  0  0  0  0  0  0
    4.9889   -0.5326    0.0000 C   0  0  0  0  0  0  0  0  0  0  0  0
    3.7320   -2.7879    0.0000 C   0  0  0  0  0  0  0  0  0  0  0  0
    5.2619   -2.2879    0.0000 C   0  0  0  0  0  0  0  0  0  0  0  0
    5.9674   -0.3264    0.0000 C   0  0  0  0  0  0  0  0  0  0  0  0
    2.8660   -1.2879    0.0000 C   0  0  0  0  0  0  0  0  0  0  0  0
    4.3211    0.2117    0.0000 C   0  0  0  0  0  0  0  0  0  0  0  0
    6.2781    0.6241    0.0000 C   0  0  0  0  0  0  0  0  0  0  0  0
    2.0000   -1.7879    0.0000 C   0  0  0  0  0  0  0  0  0  0  0  0
    4.6318    1.1622    0.0000 C   0  0  0  0  0  0  0  0  0  0  0  0
    2.0000   -2.7879    0.0000 C   0  0  0  0  0  0  0  0  0  0  0  0
    8.5458    1.9871    0.0000 C   0  0  0  0  0  0  0  0  0  0  0  0
    7.5673    1.7809    0.0000 C   0  0  0  0  0  0  0  0  0  0  0  0
    8.8564    2.9376    0.0000 C   0  0  0  0  0  0  0  0  0  0  0  0
    9.2136    1.2428    0.0000 C   0  0  0  0  0  0  0  0  0  0  0  0
    9.8349    3.1438    0.0000 C   0  0  0  0  0  0  0  0  0  0  0  0
   10.1921    1.4490    0.0000 C   0  0  0  0  0  0  0  0  0  0  0  0
   10.5028    2.3995    0.0000 C   0  0  0  0  0  0  0  0  0  0  0  0
    5.8819   -2.2879    0.0000 H   0  0  0  0  0  0  0  0  0  0  0  0
    4.8709   -3.6819    0.0000 H   0  0  0  0  0  0  0  0  0  0  0  0
    6.3815   -0.7879    0.0000 H   0  0  0  0  0  0  0  0  0  0  0  0
    2.8660   -0.6679    0.0000 H   0  0  0  0  0  0  0  0  0  0  0  0
    3.7144    0.0838    0.0000 H   0  0  0  0  0  0  0  0  0  0  0  0
    1.4631   -1.4779    0.0000 H   0  0  0  0  0  0  0  0  0  0  0  0
    7.6707    0.3689    0.0000 H   0  0  0  0  0  0  0  0  0  0  0  0
    1.4631   -3.0979    0.0000 H   0  0  0  0  0  0  0  0  0  0  0  0
   10.0276    3.7332    0.0000 H   0  0  0  0  0  0  0  0  0  0  0  0
   10.6062    0.9875    0.0000 H   0  0  0  0  0  0  0  0  0  0  0  0
   11.1095    2.5274    0.0000 H   0  0  0  0  0  0  0  0  0  0  0  0
  1 19  1  0  0  0  0
  2 23  1  0  0  0  0
  3 24  1  0  0  0  0
  4 22  2  0  0  0  0
  5 12  1  0  0  0  0
  5 13  1  0  0  0  0
  5 29  1  0  0  0  0
  6 12  1  0  0  0  0
  6 20  2  0  0  0  0
  7 17  1  0  0  0  0
  7 22  1  0  0  0  0
  7 34  1  0  0  0  0
  8 17  2  0  0  0  0
  8 19  1  0  0  0  0
  9 10  1  0  0  0  0
  9 11  1  0  0  0  0
  9 13  2  0  0  0  0
 10 12  2  0  0  0  0
 10 15  1  0  0  0  0
 11 14  2  0  0  0  0
 11 16  1  0  0  0  0
 13 28  1  0  0  0  0
 14 17  1  0  0  0  0
 14 30  1  0  0  0  0
 15 18  2  0  0  0  0
 15 31  1  0  0  0  0
 16 19  2  0  0  0  0
 16 32  1  0  0  0  0
 18 20  1  0  0  0  0
 18 33  1  0  0  0  0
 20 35  1  0  0  0  0
 21 22  1  0  0  0  0
 21 23  2  0  0  0  0
 21 24  1  0  0  0  0
 23 25  1  0  0  0  0
 24 26  2  0  0  0  0
 25 27  2  0  0  0  0
 25 36  1  0  0  0  0
 26 27  1  0  0  0  0
 26 37  1  0  0  0  0
 27 38  1  0  0  0  0
M  END
> <PUBCHEM_COMPOUND_CID>
49830328

> <PUBCHEM_COMPOUND_CANONICALIZED>
1

> <PUBCHEM_CACTVS_COMPLEXITY>
532

> <PUBCHEM_CACTVS_HBOND_ACCEPTOR>
5

> <PUBCHEM_CACTVS_HBOND_DONOR>
2

> <PUBCHEM_CACTVS_ROTATABLE_BOND>
3

> <PUBCHEM_CACTVS_SUBSKEYS>
AAADccB7oYAEAAAAAAAAAAAAAAAAAWAAAAA8WIAAAAAAAFgB/gAAHwIQAAAADALBmyw9sN7JkACoAjN3dACCgCm1B6AJ2aE4ZtiIKPLBn5GEIQholQLIyScYiMCOgAAAAAAAAAAAAAAAAAAAAAAAAAAAAA==

> <PUBCHEM_IUPAC_OPENEYE_NAME>
N-[6-chloro-4-(1H-pyrrolo[2,3-b]pyridin-3-yl)-2-pyridyl]-2,6-difluoro-benzamide

> <PUBCHEM_IUPAC_CAS_NAME>
N-[6-chloro-4-(1H-pyrrolo[2,3-b]pyridin-3-yl)-2-pyridinyl]-2,6-difluorobenzamide

> <PUBCHEM_IUPAC_NAME_MARKUP>
<I>N</I>-[6-chloro-4-(1<I>H</I>-pyrrolo[2,3-b]pyridin-3-yl)pyridin-2-yl]-2,6-difluorobenzamide

> <PUBCHEM_IUPAC_NAME>
N-[6-chloro-4-(1H-pyrrolo[2,3-b]pyridin-3-yl)pyridin-2-yl]-2,6-difluorobenzamide

> <PUBCHEM_IUPAC_SYSTEMATIC_NAME>
N-[6-chloranyl-4-(1H-pyrrolo[2,3-b]pyridin-3-yl)pyridin-2-yl]-2,6-bis(fluoranyl)benzamide

> <PUBCHEM_IUPAC_TRADITIONAL_NAME>
N-[6-chloro-4-(1H-pyrrolo[2,3-b]pyridin-3-yl)-2-pyridyl]-2,6-difluoro-benzamide

> <PUBCHEM_IUPAC_INCHI>
InChI=1S/C19H11ClF2N4O/c20-15-7-10(12-9-24-18-11(12)3-2-6-23-18)8-16(25-15)26-19(27)17-13(21)4-1-5-14(17)22/h1-9H,(H,23,24)(H,25,26,27)

> <PUBCHEM_IUPAC_INCHIKEY>
BBZSEXSOPOXLIQ-UHFFFAOYSA-N

> <PUBCHEM_XLOGP3_AA>
4.2

> <PUBCHEM_EXACT_MASS>
384.0589450

> <PUBCHEM_MOLECULAR_FORMULA>
C19H11ClF2N4O

> <PUBCHEM_MOLECULAR_WEIGHT>
384.8

> <PUBCHEM_SMILES>
C1=CC(=C(C(=C1)F)C(=O)NC2=NC(=CC(=C2)C3=CNC4=C3C=CC=N4)Cl)F

> <PUBCHEM_OPENEYE_CAN_SMILES>
C1=CC(=C(C(=C1)F)C(=O)NC2=NC(=CC(=C2)C3=CNC4=C3C=CC=N4)Cl)F

> <PUBCHEM_OPENEYE_ISO_SMILES>
C1=CC(=C(C(=C1)F)C(=O)NC2=NC(=CC(=C2)C3=CNC4=C3C=CC=N4)Cl)F

> <PUBCHEM_CACTVS_TPSA>
70.7

> <PUBCHEM_MONOISOTOPIC_WEIGHT>
384.0589450

> <PUBCHEM_TOTAL_CHARGE>
0

> <PUBCHEM_HEAVY_ATOM_COUNT>
27

> <PUBCHEM_ATOM_DEF_STEREO_COUNT>
0

> <PUBCHEM_ATOM_UDEF_STEREO_COUNT>
0

> <PUBCHEM_BOND_DEF_STEREO_COUNT>
0

> <PUBCHEM_BOND_UDEF_STEREO_COUNT>
0

> <PUBCHEM_ISOTOPIC_ATOM_COUNT>
0

> <PUBCHEM_COMPONENT_COUNT>
1

> <PUBCHEM_CACTVS_TAUTO_COUNT>
-1

> <PUBCHEM_COORDINATE_TYPE>
1
5
255

> <PUBCHEM_BONDANNOTATIONS>
10  12  8
10  15  8
11  14  8
11  16  8
14  17  8
15  18  8
16  19  8
18  20  8
21  23  8
21  24  8
23  25  8
24  26  8
25  27  8
26  27  8
5  12  8
5  13  8
6  12  8
6  20  8
8  17  8
8  19  8
9  10  8
9  13  8

$$$$
