22607531
  -OEChem-03202503082D

 65 69  0     1  0  0  0  0  0999 V2000
    6.7893    0.4449    0.0000 O   0  0  0  0  0  0  0  0  0  0  0  0
    5.0573    2.4449    0.0000 O   0  0  0  0  0  0  0  0  0  0  0  0
    4.1912    0.9449    0.0000 N   0  0  0  0  0  0  0  0  0  0  0  0
    2.6164   -1.3870    0.0000 N   0  0  0  0  0  0  0  0  0  0  0  0
    3.3252    3.4449    0.0000 N   0  0  0  0  0  0  0  0  0  0  0  0
    8.5214    2.4449    0.0000 N   0  0  0  0  0  0  0  0  0  0  0  0
   13.7855   -0.5759    0.0000 N   0  0  0  0  0  0  0  0  0  0  0  0
    5.0573    0.4449    0.0000 C   0  0  3  0  0  0  0  0  0  0  0  0
    5.0573   -0.5551    0.0000 C   0  0  0  0  0  0  0  0  0  0  0  0
    4.1912   -1.0551    0.0000 C   0  0  0  0  0  0  0  0  0  0  0  0
    4.0882   -2.0438    0.0000 C   0  0  0  0  0  0  0  0  0  0  0  0
    5.9233    0.9449    0.0000 C   0  0  0  0  0  0  0  0  0  0  0  0
    3.1097   -2.2501    0.0000 C   0  0  0  0  0  0  0  0  0  0  0  0
    3.2835   -0.6500    0.0000 C   0  0  0  0  0  0  0  0  0  0  0  0
    4.7560   -2.7881    0.0000 C   0  0  0  0  0  0  0  0  0  0  0  0
    4.1912    1.9449    0.0000 C   0  0  0  0  0  0  0  0  0  0  0  0
    2.7990   -3.2006    0.0000 C   0  0  0  0  0  0  0  0  0  0  0  0
    3.3252    2.4449    0.0000 C   0  0  0  0  0  0  0  0  0  0  0  0
    4.4454   -3.7387    0.0000 C   0  0  0  0  0  0  0  0  0  0  0  0
    3.4669   -3.9449    0.0000 C   0  0  0  0  0  0  0  0  0  0  0  0
    7.6554    0.9449    0.0000 C   0  0  0  0  0  0  0  0  0  0  0  0
    8.5214    0.4449    0.0000 C   0  0  0  0  0  0  0  0  0  0  0  0
    9.3874    0.9449    0.0000 C   0  0  0  0  0  0  0  0  0  0  0  0
   10.2534    0.4449    0.0000 C   0  0  0  0  0  0  0  0  0  0  0  0
    7.6554    1.9449    0.0000 C   0  0  0  0  0  0  0  0  0  0  0  0
    2.4592    3.9449    0.0000 C   0  0  0  0  0  0  0  0  0  0  0  0
    4.1912    3.9449    0.0000 C   0  0  0  0  0  0  0  0  0  0  0  0
   11.1194    0.9449    0.0000 C   0  0  0  0  0  0  0  0  0  0  0  0
   11.9855    0.4449    0.0000 C   0  0  0  0  0  0  0  0  0  0  0  0
    9.3874    1.9449    0.0000 C   0  0  0  0  0  0  0  0  0  0  0  0
   10.2534   -0.5551    0.0000 C   0  0  0  0  0  0  0  0  0  0  0  0
   11.9855   -0.5551    0.0000 C   0  0  0  0  0  0  0  0  0  0  0  0
   11.1194   -1.0551    0.0000 C   0  0  0  0  0  0  0  0  0  0  0  0
   12.8794    0.9795    0.0000 C   0  0  0  0  0  0  0  0  0  0  0  0
   12.8794   -1.0898    0.0000 C   0  0  0  0  0  0  0  0  0  0  0  0
   13.7855    0.4657    0.0000 C   0  0  0  0  0  0  0  0  0  0  0  0
    5.0573    1.0649    0.0000 H   0  0  0  0  0  0  0  0  0  0  0  0
    5.2693   -1.1377    0.0000 H   0  0  0  0  0  0  0  0  0  0  0  0
    5.6678   -0.4475    0.0000 H   0  0  0  0  0  0  0  0  0  0  0  0
    6.3218    1.4198    0.0000 H   0  0  0  0  0  0  0  0  0  0  0  0
    5.5248    1.4198    0.0000 H   0  0  0  0  0  0  0  0  0  0  0  0
    3.6543    0.6349    0.0000 H   0  0  0  0  0  0  0  0  0  0  0  0
    3.1556   -0.0433    0.0000 H   0  0  0  0  0  0  0  0  0  0  0  0
    2.0000   -1.3201    0.0000 H   0  0  0  0  0  0  0  0  0  0  0  0
    5.3627   -2.6603    0.0000 H   0  0  0  0  0  0  0  0  0  0  0  0
    2.1923   -3.3284    0.0000 H   0  0  0  0  0  0  0  0  0  0  0  0
    2.7146    2.5525    0.0000 H   0  0  0  0  0  0  0  0  0  0  0  0
    3.1132    1.8623    0.0000 H   0  0  0  0  0  0  0  0  0  0  0  0
    4.8594   -4.2001    0.0000 H   0  0  0  0  0  0  0  0  0  0  0  0
    3.2743   -4.5342    0.0000 H   0  0  0  0  0  0  0  0  0  0  0  0
    8.5214   -0.1751    0.0000 H   0  0  0  0  0  0  0  0  0  0  0  0
    7.1184    2.2549    0.0000 H   0  0  0  0  0  0  0  0  0  0  0  0
    2.7692    4.4818    0.0000 H   0  0  0  0  0  0  0  0  0  0  0  0
    1.9223    4.2549    0.0000 H   0  0  0  0  0  0  0  0  0  0  0  0
    2.1492    3.4080    0.0000 H   0  0  0  0  0  0  0  0  0  0  0  0
    4.5012    3.4080    0.0000 H   0  0  0  0  0  0  0  0  0  0  0  0
    4.7282    4.2549    0.0000 H   0  0  0  0  0  0  0  0  0  0  0  0
    3.8812    4.4818    0.0000 H   0  0  0  0  0  0  0  0  0  0  0  0
   11.1194    1.5649    0.0000 H   0  0  0  0  0  0  0  0  0  0  0  0
    9.9243    2.2549    0.0000 H   0  0  0  0  0  0  0  0  0  0  0  0
    9.7165   -0.8651    0.0000 H   0  0  0  0  0  0  0  0  0  0  0  0
   11.1194   -1.6751    0.0000 H   0  0  0  0  0  0  0  0  0  0  0  0
   12.8722    1.5995    0.0000 H   0  0  0  0  0  0  0  0  0  0  0  0
   12.8722   -1.7097    0.0000 H   0  0  0  0  0  0  0  0  0  0  0  0
   14.3212    0.7778    0.0000 H   0  0  0  0  0  0  0  0  0  0  0  0
  1 12  1  0  0  0  0
  1 21  1  0  0  0  0
  2 16  2  0  0  0  0
  3  8  1  0  0  0  0
  3 16  1  0  0  0  0
  3 42  1  0  0  0  0
  4 13  1  0  0  0  0
  4 14  1  0  0  0  0
  4 44  1  0  0  0  0
  5 18  1  0  0  0  0
  5 26  1  0  0  0  0
  5 27  1  0  0  0  0
  6 25  1  0  0  0  0
  6 30  2  0  0  0  0
  7 35  2  0  0  0  0
  7 36  1  0  0  0  0
  8  9  1  0  0  0  0
  8 12  1  0  0  0  0
  8 37  1  0  0  0  0
  9 10  1  0  0  0  0
  9 38  1  0  0  0  0
  9 39  1  0  0  0  0
 10 11  1  0  0  0  0
 10 14  2  0  0  0  0
 11 13  1  0  0  0  0
 11 15  2  0  0  0  0
 12 40  1  0  0  0  0
 12 41  1  0  0  0  0
 13 17  2  0  0  0  0
 14 43  1  0  0  0  0
 15 19  1  0  0  0  0
 15 45  1  0  0  0  0
 16 18  1  0  0  0  0
 17 20  1  0  0  0  0
 17 46  1  0  0  0  0
 18 47  1  0  0  0  0
 18 48  1  0  0  0  0
 19 20  2  0  0  0  0
 19 49  1  0  0  0  0
 20 50  1  0  0  0  0
 21 22  1  0  0  0  0
 21 25  2  0  0  0  0
 22 23  2  0  0  0  0
 22 51  1  0  0  0  0
 23 24  1  0  0  0  0
 23 30  1  0  0  0  0
 24 28  2  0  0  0  0
 24 31  1  0  0  0  0
 25 52  1  0  0  0  0
 26 53  1  0  0  0  0
 26 54  1  0  0  0  0
 26 55  1  0  0  0  0
 27 56  1  0  0  0  0
 27 57  1  0  0  0  0
 27 58  1  0  0  0  0
 28 29  1  0  0  0  0
 28 59  1  0  0  0  0
 29 32  2  0  0  0  0
 29 34  1  0  0  0  0
 30 60  1  0  0  0  0
 31 33  2  0  0  0  0
 31 61  1  0  0  0  0
 32 33  1  0  0  0  0
 32 35  1  0  0  0  0
 33 62  1  0  0  0  0
 34 36  2  0  0  0  0
 34 63  1  0  0  0  0
 35 64  1  0  0  0  0
 36 65  1  0  0  0  0
M  END
> <PUBCHEM_COMPOUND_CID>
22607531

> <PUBCHEM_COMPOUND_CANONICALIZED>
1

> <PUBCHEM_CACTVS_COMPLEXITY>
705

> <PUBCHEM_CACTVS_HBOND_ACCEPTOR>
5

> <PUBCHEM_CACTVS_HBOND_DONOR>
2

> <PUBCHEM_CACTVS_ROTATABLE_BOND>
9

> <PUBCHEM_CACTVS_SUBSKEYS>
AAADceB7sAAAAAAAAAAAAAAAAAAAAWAAAAA8eIEAAAAAAFix/gAAHgAQAAAADCzhngY+xvPJlACoAzV3VASCiCAxYiAI2aC/bJgOZuLEsbuXOCjk1hHY6Aew0PIOwAACAAASAACAAAQAACQAAAAAAAAAAA==

> <PUBCHEM_IUPAC_OPENEYE_NAME>
2-(dimethylamino)-N-[1-(1H-indol-3-ylmethyl)-2-[[5-(6-isoquinolyl)-3-pyridyl]oxy]ethyl]acetamide

> <PUBCHEM_IUPAC_CAS_NAME>
2-(dimethylamino)-N-[1-(1H-indol-3-yl)-3-[[5-(6-isoquinolinyl)-3-pyridinyl]oxy]propan-2-yl]acetamide

> <PUBCHEM_IUPAC_NAME_MARKUP>
2-(dimethylamino)-<I>N</I>-[1-(1<I>H</I>-indol-3-yl)-3-(5-isoquinolin-6-ylpyridin-3-yl)oxypropan-2-yl]acetamide

> <PUBCHEM_IUPAC_NAME>
2-(dimethylamino)-N-[1-(1H-indol-3-yl)-3-(5-isoquinolin-6-ylpyridin-3-yl)oxypropan-2-yl]acetamide

> <PUBCHEM_IUPAC_SYSTEMATIC_NAME>
2-(dimethylamino)-N-[1-(1H-indol-3-yl)-3-(5-isoquinolin-6-ylpyridin-3-yl)oxy-propan-2-yl]ethanamide

> <PUBCHEM_IUPAC_TRADITIONAL_NAME>
2-(dimethylamino)-N-[1-(1H-indol-3-ylmethyl)-2-[[5-(6-isoquinolyl)-3-pyridyl]oxy]ethyl]acetamide

> <PUBCHEM_IUPAC_INCHI>
InChI=1S/C29H29N5O2/c1-34(2)18-29(35)33-25(12-24-16-32-28-6-4-3-5-27(24)28)19-36-26-13-23(15-31-17-26)20-7-8-22-14-30-10-9-21(22)11-20/h3-11,13-17,25,32H,12,18-19H2,1-2H3,(H,33,35)

> <PUBCHEM_IUPAC_INCHIKEY>
KNVOICXEDILAGT-UHFFFAOYSA-N

> <PUBCHEM_XLOGP3_AA>
4.2

> <PUBCHEM_EXACT_MASS>
479.23212518

> <PUBCHEM_MOLECULAR_FORMULA>
C29H29N5O2

> <PUBCHEM_MOLECULAR_WEIGHT>
479.6

> <PUBCHEM_SMILES>
CN(C)CC(=O)NC(CC1=CNC2=CC=CC=C21)COC3=CN=CC(=C3)C4=CC5=C(C=C4)C=NC=C5

> <PUBCHEM_OPENEYE_CAN_SMILES>
CN(C)CC(=O)NC(CC1=CNC2=CC=CC=C21)COC3=CN=CC(=C3)C4=CC5=C(C=C4)C=NC=C5

> <PUBCHEM_OPENEYE_ISO_SMILES>
CN(C)CC(=O)NC(CC1=CNC2=CC=CC=C21)COC3=CN=CC(=C3)C4=CC5=C(C=C4)C=NC=C5

> <PUBCHEM_CACTVS_TPSA>
83.1

> <PUBCHEM_MONOISOTOPIC_WEIGHT>
479.23212518

> <PUBCHEM_TOTAL_CHARGE>
0

> <PUBCHEM_HEAVY_ATOM_COUNT>
36

> <PUBCHEM_ATOM_DEF_STEREO_COUNT>
0

> <PUBCHEM_ATOM_UDEF_STEREO_COUNT>
1

> <PUBCHEM_BOND_DEF_STEREO_COUNT>
0

> <PUBCHEM_BOND_UDEF_STEREO_COUNT>
0

> <PUBCHEM_ISOTOPIC_ATOM_COUNT>
0

> <PUBCHEM_COMPONENT_COUNT>
1

> <PUBCHEM_CACTVS_TAUTO_COUNT>
-1

> <PUBCHEM_COORDINATE_TYPE>
1
5
255

> <PUBCHEM_BONDANNOTATIONS>
10  11  8
10  14  8
11  13  8
11  15  8
13  17  8
15  19  8
17  20  8
19  20  8
21  22  8
21  25  8
22  23  8
23  30  8
24  28  8
24  31  8
28  29  8
29  32  8
29  34  8
31  33  8
32  33  8
32  35  8
34  36  8
4  13  8
4  14  8
6  25  8
6  30  8
7  35  8
7  36  8
8  9  3

$$$$
