14654656
  -OEChem-03202506582D

 96 94  0     1  0  0  0  0  0999 V2000
   12.4113    0.0000    0.0000 Br  0  5  0  0  0  0  0  0  0  0  0  0
    7.4651    4.4030    0.0000 O   0  0  0  0  0  0  0  0  0  0  0  0
   10.9292    4.4030    0.0000 O   0  0  0  0  0  0  0  0  0  0  0  0
    9.1972    5.4030    0.0000 O   0  0  0  0  0  0  0  0  0  0  0  0
    1.4030    3.9030    0.0000 N   0  3  0  0  0  0  0  0  0  0  0  0
    2.2690    4.4030    0.0000 C   0  0  0  0  0  0  0  0  0  0  0  0
    3.1350    3.9030    0.0000 C   0  0  0  0  0  0  0  0  0  0  0  0
    4.0010    4.4030    0.0000 C   0  0  0  0  0  0  0  0  0  0  0  0
    0.5369    3.4030    0.0000 C   0  0  0  0  0  0  0  0  0  0  0  0
    0.9030    4.7690    0.0000 C   0  0  0  0  0  0  0  0  0  0  0  0
    1.9030    3.0369    0.0000 C   0  0  0  0  0  0  0  0  0  0  0  0
    4.8671    3.9030    0.0000 C   0  0  0  0  0  0  0  0  0  0  0  0
   17.8574    4.4030    0.0000 C   0  0  0  0  0  0  0  0  0  0  0  0
   16.9914    3.9030    0.0000 C   0  0  0  0  0  0  0  0  0  0  0  0
   18.7235    3.9030    0.0000 C   0  0  0  0  0  0  0  0  0  0  0  0
   16.1254    4.4030    0.0000 C   0  0  0  0  0  0  0  0  0  0  0  0
   19.5895    4.4030    0.0000 C   0  0  0  0  0  0  0  0  0  0  0  0
   15.2594    3.9030    0.0000 C   0  0  0  0  0  0  0  0  0  0  0  0
   20.4555    3.9030    0.0000 C   0  0  0  0  0  0  0  0  0  0  0  0
    5.7331    4.4030    0.0000 C   0  0  0  0  0  0  0  0  0  0  0  0
   14.3933    4.4030    0.0000 C   0  0  0  0  0  0  0  0  0  0  0  0
   21.3215    4.4030    0.0000 C   0  0  0  0  0  0  0  0  0  0  0  0
   13.5273    3.9030    0.0000 C   0  0  0  0  0  0  0  0  0  0  0  0
   22.1876    3.9030    0.0000 C   0  0  0  0  0  0  0  0  0  0  0  0
    6.5991    3.9030    0.0000 C   0  0  0  0  0  0  0  0  0  0  0  0
   12.6613    4.4030    0.0000 C   0  0  0  0  0  0  0  0  0  0  0  0
   23.0536    4.4030    0.0000 C   0  0  0  0  0  0  0  0  0  0  0  0
   11.7953    3.9030    0.0000 C   0  0  0  0  0  0  0  0  0  0  0  0
   23.9196    3.9030    0.0000 C   0  0  0  0  0  0  0  0  0  0  0  0
    9.1972    4.4030    0.0000 C   0  0  3  0  0  0  0  0  0  0  0  0
    8.3312    3.9030    0.0000 C   0  0  0  0  0  0  0  0  0  0  0  0
   10.0632    3.9030    0.0000 C   0  0  0  0  0  0  0  0  0  0  0  0
   24.7856    4.4030    0.0000 C   0  0  0  0  0  0  0  0  0  0  0  0
   10.0632    5.9030    0.0000 C   0  0  0  0  0  0  0  0  0  0  0  0
    2.6675    4.8779    0.0000 H   0  0  0  0  0  0  0  0  0  0  0  0
    1.8705    4.8779    0.0000 H   0  0  0  0  0  0  0  0  0  0  0  0
    2.7365    3.4280    0.0000 H   0  0  0  0  0  0  0  0  0  0  0  0
    3.5335    3.4280    0.0000 H   0  0  0  0  0  0  0  0  0  0  0  0
    4.3996    4.8779    0.0000 H   0  0  0  0  0  0  0  0  0  0  0  0
    3.6025    4.8779    0.0000 H   0  0  0  0  0  0  0  0  0  0  0  0
    0.2269    3.9399    0.0000 H   0  0  0  0  0  0  0  0  0  0  0  0
    0.0000    3.0930    0.0000 H   0  0  0  0  0  0  0  0  0  0  0  0
    0.8469    2.8660    0.0000 H   0  0  0  0  0  0  0  0  0  0  0  0
    1.4399    5.0790    0.0000 H   0  0  0  0  0  0  0  0  0  0  0  0
    0.5930    5.3059    0.0000 H   0  0  0  0  0  0  0  0  0  0  0  0
    0.3660    4.4590    0.0000 H   0  0  0  0  0  0  0  0  0  0  0  0
    1.3660    2.7269    0.0000 H   0  0  0  0  0  0  0  0  0  0  0  0
    2.2130    2.5000    0.0000 H   0  0  0  0  0  0  0  0  0  0  0  0
    2.4399    3.3469    0.0000 H   0  0  0  0  0  0  0  0  0  0  0  0
    4.4685    3.4280    0.0000 H   0  0  0  0  0  0  0  0  0  0  0  0
    5.2656    3.4280    0.0000 H   0  0  0  0  0  0  0  0  0  0  0  0
   18.2560    4.8779    0.0000 H   0  0  0  0  0  0  0  0  0  0  0  0
   17.4589    4.8779    0.0000 H   0  0  0  0  0  0  0  0  0  0  0  0
   16.5929    3.4280    0.0000 H   0  0  0  0  0  0  0  0  0  0  0  0
   17.3899    3.4280    0.0000 H   0  0  0  0  0  0  0  0  0  0  0  0
   18.3249    3.4280    0.0000 H   0  0  0  0  0  0  0  0  0  0  0  0
   19.1220    3.4280    0.0000 H   0  0  0  0  0  0  0  0  0  0  0  0
   16.5239    4.8779    0.0000 H   0  0  0  0  0  0  0  0  0  0  0  0
   15.7269    4.8779    0.0000 H   0  0  0  0  0  0  0  0  0  0  0  0
   19.9880    4.8779    0.0000 H   0  0  0  0  0  0  0  0  0  0  0  0
   19.1910    4.8779    0.0000 H   0  0  0  0  0  0  0  0  0  0  0  0
   14.8608    3.4280    0.0000 H   0  0  0  0  0  0  0  0  0  0  0  0
   15.6579    3.4280    0.0000 H   0  0  0  0  0  0  0  0  0  0  0  0
   20.0570    3.4280    0.0000 H   0  0  0  0  0  0  0  0  0  0  0  0
   20.8540    3.4280    0.0000 H   0  0  0  0  0  0  0  0  0  0  0  0
    6.1316    4.8779    0.0000 H   0  0  0  0  0  0  0  0  0  0  0  0
    5.3346    4.8779    0.0000 H   0  0  0  0  0  0  0  0  0  0  0  0
   14.7919    4.8779    0.0000 H   0  0  0  0  0  0  0  0  0  0  0  0
   13.9948    4.8779    0.0000 H   0  0  0  0  0  0  0  0  0  0  0  0
   21.7201    4.8779    0.0000 H   0  0  0  0  0  0  0  0  0  0  0  0
   20.9230    4.8779    0.0000 H   0  0  0  0  0  0  0  0  0  0  0  0
   13.1288    3.4280    0.0000 H   0  0  0  0  0  0  0  0  0  0  0  0
   13.9258    3.4280    0.0000 H   0  0  0  0  0  0  0  0  0  0  0  0
   21.7890    3.4280    0.0000 H   0  0  0  0  0  0  0  0  0  0  0  0
   22.5861    3.4280    0.0000 H   0  0  0  0  0  0  0  0  0  0  0  0
    6.2006    3.4280    0.0000 H   0  0  0  0  0  0  0  0  0  0  0  0
    6.9976    3.4280    0.0000 H   0  0  0  0  0  0  0  0  0  0  0  0
   13.0598    4.8779    0.0000 H   0  0  0  0  0  0  0  0  0  0  0  0
   12.2628    4.8779    0.0000 H   0  0  0  0  0  0  0  0  0  0  0  0
   23.4521    4.8779    0.0000 H   0  0  0  0  0  0  0  0  0  0  0  0
   22.6551    4.8779    0.0000 H   0  0  0  0  0  0  0  0  0  0  0  0
   11.3967    3.4280    0.0000 H   0  0  0  0  0  0  0  0  0  0  0  0
   12.1938    3.4280    0.0000 H   0  0  0  0  0  0  0  0  0  0  0  0
   23.5211    3.4280    0.0000 H   0  0  0  0  0  0  0  0  0  0  0  0
   24.3182    3.4280    0.0000 H   0  0  0  0  0  0  0  0  0  0  0  0
    9.7341    4.7130    0.0000 H   0  0  0  0  0  0  0  0  0  0  0  0
    7.9326    3.4280    0.0000 H   0  0  0  0  0  0  0  0  0  0  0  0
    8.7297    3.4280    0.0000 H   0  0  0  0  0  0  0  0  0  0  0  0
    9.6647    3.4280    0.0000 H   0  0  0  0  0  0  0  0  0  0  0  0
   10.4617    3.4280    0.0000 H   0  0  0  0  0  0  0  0  0  0  0  0
   25.0956    3.8660    0.0000 H   0  0  0  0  0  0  0  0  0  0  0  0
   25.3226    4.7130    0.0000 H   0  0  0  0  0  0  0  0  0  0  0  0
   24.4756    4.9399    0.0000 H   0  0  0  0  0  0  0  0  0  0  0  0
   10.3732    5.3660    0.0000 H   0  0  0  0  0  0  0  0  0  0  0  0
   10.6002    6.2130    0.0000 H   0  0  0  0  0  0  0  0  0  0  0  0
    9.7532    6.4399    0.0000 H   0  0  0  0  0  0  0  0  0  0  0  0
  2 25  1  0  0  0  0
  2 31  1  0  0  0  0
  3 28  1  0  0  0  0
  3 32  1  0  0  0  0
  4 30  1  0  0  0  0
  4 34  1  0  0  0  0
  5  6  1  0  0  0  0
  5  9  1  0  0  0  0
  5 10  1  0  0  0  0
  5 11  1  0  0  0  0
  6  7  1  0  0  0  0
  6 35  1  0  0  0  0
  6 36  1  0  0  0  0
  7  8  1  0  0  0  0
  7 37  1  0  0  0  0
  7 38  1  0  0  0  0
  8 12  1  0  0  0  0
  8 39  1  0  0  0  0
  8 40  1  0  0  0  0
  9 41  1  0  0  0  0
  9 42  1  0  0  0  0
  9 43  1  0  0  0  0
 10 44  1  0  0  0  0
 10 45  1  0  0  0  0
 10 46  1  0  0  0  0
 11 47  1  0  0  0  0
 11 48  1  0  0  0  0
 11 49  1  0  0  0  0
 12 20  1  0  0  0  0
 12 50  1  0  0  0  0
 12 51  1  0  0  0  0
 13 14  1  0  0  0  0
 13 15  1  0  0  0  0
 13 52  1  0  0  0  0
 13 53  1  0  0  0  0
 14 16  1  0  0  0  0
 14 54  1  0  0  0  0
 14 55  1  0  0  0  0
 15 17  1  0  0  0  0
 15 56  1  0  0  0  0
 15 57  1  0  0  0  0
 16 18  1  0  0  0  0
 16 58  1  0  0  0  0
 16 59  1  0  0  0  0
 17 19  1  0  0  0  0
 17 60  1  0  0  0  0
 17 61  1  0  0  0  0
 18 21  1  0  0  0  0
 18 62  1  0  0  0  0
 18 63  1  0  0  0  0
 19 22  1  0  0  0  0
 19 64  1  0  0  0  0
 19 65  1  0  0  0  0
 20 25  1  0  0  0  0
 20 66  1  0  0  0  0
 20 67  1  0  0  0  0
 21 23  1  0  0  0  0
 21 68  1  0  0  0  0
 21 69  1  0  0  0  0
 22 24  1  0  0  0  0
 22 70  1  0  0  0  0
 22 71  1  0  0  0  0
 23 26  1  0  0  0  0
 23 72  1  0  0  0  0
 23 73  1  0  0  0  0
 24 27  1  0  0  0  0
 24 74  1  0  0  0  0
 24 75  1  0  0  0  0
 25 76  1  0  0  0  0
 25 77  1  0  0  0  0
 26 28  1  0  0  0  0
 26 78  1  0  0  0  0
 26 79  1  0  0  0  0
 27 29  1  0  0  0  0
 27 80  1  0  0  0  0
 27 81  1  0  0  0  0
 28 82  1  0  0  0  0
 28 83  1  0  0  0  0
 29 33  1  0  0  0  0
 29 84  1  0  0  0  0
 29 85  1  0  0  0  0
 30 31  1  0  0  0  0
 30 32  1  0  0  0  0
 30 86  1  0  0  0  0
 31 87  1  0  0  0  0
 31 88  1  0  0  0  0
 32 89  1  0  0  0  0
 32 90  1  0  0  0  0
 33 91  1  0  0  0  0
 33 92  1  0  0  0  0
 33 93  1  0  0  0  0
 34 94  1  0  0  0  0
 34 95  1  0  0  0  0
 34 96  1  0  0  0  0
M  CHG  2   1  -1   5   1
M  END
> <PUBCHEM_COMPOUND_CID>
14654656

> <PUBCHEM_COMPOUND_CANONICALIZED>
1

> <PUBCHEM_CACTVS_COMPLEXITY>
370

> <PUBCHEM_CACTVS_HBOND_ACCEPTOR>
4

> <PUBCHEM_CACTVS_HBOND_DONOR>
0

> <PUBCHEM_CACTVS_ROTATABLE_BOND>
27

> <PUBCHEM_CACTVS_SUBSKEYS>
AAADcfB6MAAAEAAAAAAAAAAAAAAAAAAAAAAAAAAAAAAAAAAAAAAAHgAAAAAACBThgAYCAAMABAAAAAAAAAAAAAAAAAAAAAAIAAABAAIAgAAGAAAFAAACAAGQwKAAAAAAAAAAAAAAAAAAAAAAAAAAAAAAAA==

> <PUBCHEM_IUPAC_OPENEYE_NAME>
6-(3-hexadecoxy-2-methoxy-propoxy)hexyl-trimethyl-ammonium;bromide

> <PUBCHEM_IUPAC_CAS_NAME>
6-(3-hexadecoxy-2-methoxypropoxy)hexyl-trimethylammonium;bromide

> <PUBCHEM_IUPAC_NAME_MARKUP>
6-(3-hexadecoxy-2-methoxypropoxy)hexyl-trimethylazanium;bromide

> <PUBCHEM_IUPAC_NAME>
6-(3-hexadecoxy-2-methoxypropoxy)hexyl-trimethylazanium;bromide

> <PUBCHEM_IUPAC_SYSTEMATIC_NAME>
6-(3-hexadecoxy-2-methoxy-propoxy)hexyl-trimethyl-azanium;bromide

> <PUBCHEM_IUPAC_TRADITIONAL_NAME>
6-(3-cetyloxy-2-methoxy-propoxy)hexyl-trimethyl-ammonium;bromide

> <PUBCHEM_IUPAC_INCHI>
InChI=1S/C29H62NO3.BrH/c1-6-7-8-9-10-11-12-13-14-15-16-17-19-22-25-32-27-29(31-5)28-33-26-23-20-18-21-24-30(2,3)4;/h29H,6-28H2,1-5H3;1H/q+1;/p-1

> <PUBCHEM_IUPAC_INCHIKEY>
WASFPAXXEPONKF-UHFFFAOYSA-M

> <PUBCHEM_EXACT_MASS>
551.39131

> <PUBCHEM_MOLECULAR_FORMULA>
C29H62BrNO3

> <PUBCHEM_MOLECULAR_WEIGHT>
552.7

> <PUBCHEM_SMILES>
CCCCCCCCCCCCCCCCOCC(COCCCCCC[N+](C)(C)C)OC.[Br-]

> <PUBCHEM_OPENEYE_CAN_SMILES>
CCCCCCCCCCCCCCCCOCC(COCCCCCC[N+](C)(C)C)OC.[Br-]

> <PUBCHEM_OPENEYE_ISO_SMILES>
CCCCCCCCCCCCCCCCOCC(COCCCCCC[N+](C)(C)C)OC.[Br-]

> <PUBCHEM_CACTVS_TPSA>
27.7

> <PUBCHEM_MONOISOTOPIC_WEIGHT>
551.39131

> <PUBCHEM_TOTAL_CHARGE>
0

> <PUBCHEM_HEAVY_ATOM_COUNT>
34

> <PUBCHEM_ATOM_DEF_STEREO_COUNT>
0

> <PUBCHEM_ATOM_UDEF_STEREO_COUNT>
1

> <PUBCHEM_BOND_DEF_STEREO_COUNT>
0

> <PUBCHEM_BOND_UDEF_STEREO_COUNT>
0

> <PUBCHEM_ISOTOPIC_ATOM_COUNT>
0

> <PUBCHEM_COMPONENT_COUNT>
2

> <PUBCHEM_CACTVS_TAUTO_COUNT>
-1

> <PUBCHEM_COORDINATE_TYPE>
1
5
255

> <PUBCHEM_BONDANNOTATIONS>
30  32  3

$$$$
