16118737
  -OEChem-03202505122D

 73 77  0     0  0  0  0  0  0999 V2000
    4.4641   -7.0000    0.0000 F   0  0  0  0  0  0  0  0  0  0  0  0
    5.4641   -8.0000    0.0000 F   0  0  0  0  0  0  0  0  0  0  0  0
    6.4641   -7.0000    0.0000 F   0  0  0  0  0  0  0  0  0  0  0  0
    9.7942    0.5000    0.0000 O   0  0  0  0  0  0  0  0  0  0  0  0
    8.0622   -4.5000    0.0000 O   0  0  0  0  0  0  0  0  0  0  0  0
    4.5981    6.5000    0.0000 N   0  0  0  0  0  0  0  0  0  0  0  0
    2.8660    7.5000    0.0000 N   0  0  0  0  0  0  0  0  0  0  0  0
    8.0622    4.5000    0.0000 N   0  0  0  0  0  0  0  0  0  0  0  0
    7.1962    3.0000    0.0000 N   0  0  0  0  0  0  0  0  0  0  0  0
    8.9282    3.0000    0.0000 N   0  0  0  0  0  0  0  0  0  0  0  0
    8.0622    0.5000    0.0000 N   0  0  0  0  0  0  0  0  0  0  0  0
    7.1962   -3.0000    0.0000 N   0  0  0  0  0  0  0  0  0  0  0  0
    4.5981    7.5000    0.0000 C   0  0  0  0  0  0  0  0  0  0  0  0
    3.7320    6.0000    0.0000 C   0  0  0  0  0  0  0  0  0  0  0  0
    3.7320    8.0000    0.0000 C   0  0  0  0  0  0  0  0  0  0  0  0
    2.8660    6.5000    0.0000 C   0  0  0  0  0  0  0  0  0  0  0  0
    5.4641    6.0000    0.0000 C   0  0  0  0  0  0  0  0  0  0  0  0
    2.0000    8.0000    0.0000 C   0  0  0  0  0  0  0  0  0  0  0  0
    5.4641    5.0000    0.0000 C   0  0  0  0  0  0  0  0  0  0  0  0
    6.3301    6.5000    0.0000 C   0  0  0  0  0  0  0  0  0  0  0  0
    6.3301    4.5000    0.0000 C   0  0  0  0  0  0  0  0  0  0  0  0
    7.1962    6.0000    0.0000 C   0  0  0  0  0  0  0  0  0  0  0  0
    7.1962    5.0000    0.0000 C   0  0  0  0  0  0  0  0  0  0  0  0
    8.0622    3.5000    0.0000 C   0  0  0  0  0  0  0  0  0  0  0  0
    8.9282   -1.0000    0.0000 C   0  0  0  0  0  0  0  0  0  0  0  0
    9.7942   -1.5000    0.0000 C   0  0  0  0  0  0  0  0  0  0  0  0
    8.0622   -2.5000    0.0000 C   0  0  0  0  0  0  0  0  0  0  0  0
    8.0622   -1.5000    0.0000 C   0  0  0  0  0  0  0  0  0  0  0  0
    8.0622    1.5000    0.0000 C   0  0  0  0  0  0  0  0  0  0  0  0
    9.7942   -2.5000    0.0000 C   0  0  0  0  0  0  0  0  0  0  0  0
    8.9282   -0.0000    0.0000 C   0  0  0  0  0  0  0  0  0  0  0  0
    8.9282   -3.0000    0.0000 C   0  0  0  0  0  0  0  0  0  0  0  0
    7.1962    2.0000    0.0000 C   0  0  0  0  0  0  0  0  0  0  0  0
    8.9282    2.0000    0.0000 C   0  0  0  0  0  0  0  0  0  0  0  0
   10.6603   -1.0000    0.0000 C   0  0  0  0  0  0  0  0  0  0  0  0
    6.3301   -4.5000    0.0000 C   0  0  0  0  0  0  0  0  0  0  0  0
    7.1962   -4.0000    0.0000 C   0  0  0  0  0  0  0  0  0  0  0  0
    6.3301   -5.5000    0.0000 C   0  0  0  0  0  0  0  0  0  0  0  0
    5.4641   -6.0000    0.0000 C   0  0  0  0  0  0  0  0  0  0  0  0
    5.4641   -4.0000    0.0000 C   0  0  0  0  0  0  0  0  0  0  0  0
    4.5981   -5.5000    0.0000 C   0  0  0  0  0  0  0  0  0  0  0  0
    4.5981   -4.5000    0.0000 C   0  0  0  0  0  0  0  0  0  0  0  0
    5.4641   -7.0000    0.0000 C   0  0  0  0  0  0  0  0  0  0  0  0
    5.2087    7.3923    0.0000 H   0  0  0  0  0  0  0  0  0  0  0  0
    4.8101    8.0826    0.0000 H   0  0  0  0  0  0  0  0  0  0  0  0
    3.3335    5.5250    0.0000 H   0  0  0  0  0  0  0  0  0  0  0  0
    4.1306    5.5250    0.0000 H   0  0  0  0  0  0  0  0  0  0  0  0
    4.1306    8.4750    0.0000 H   0  0  0  0  0  0  0  0  0  0  0  0
    3.3335    8.4750    0.0000 H   0  0  0  0  0  0  0  0  0  0  0  0
    2.2554    6.6077    0.0000 H   0  0  0  0  0  0  0  0  0  0  0  0
    2.6540    5.9174    0.0000 H   0  0  0  0  0  0  0  0  0  0  0  0
    2.3100    8.5369    0.0000 H   0  0  0  0  0  0  0  0  0  0  0  0
    1.4631    8.3100    0.0000 H   0  0  0  0  0  0  0  0  0  0  0  0
    1.6900    7.4631    0.0000 H   0  0  0  0  0  0  0  0  0  0  0  0
    4.9272    4.6900    0.0000 H   0  0  0  0  0  0  0  0  0  0  0  0
    6.3301    7.1200    0.0000 H   0  0  0  0  0  0  0  0  0  0  0  0
    6.3301    3.8800    0.0000 H   0  0  0  0  0  0  0  0  0  0  0  0
    7.7331    6.3100    0.0000 H   0  0  0  0  0  0  0  0  0  0  0  0
    8.5991    4.8100    0.0000 H   0  0  0  0  0  0  0  0  0  0  0  0
    7.5252   -1.1900    0.0000 H   0  0  0  0  0  0  0  0  0  0  0  0
   10.3312   -2.8100    0.0000 H   0  0  0  0  0  0  0  0  0  0  0  0
    8.9282   -3.6200    0.0000 H   0  0  0  0  0  0  0  0  0  0  0  0
    6.6592    1.6900    0.0000 H   0  0  0  0  0  0  0  0  0  0  0  0
    9.4651    1.6900    0.0000 H   0  0  0  0  0  0  0  0  0  0  0  0
    7.5252    0.1900    0.0000 H   0  0  0  0  0  0  0  0  0  0  0  0
    6.6592   -2.6900    0.0000 H   0  0  0  0  0  0  0  0  0  0  0  0
   10.9703   -1.5369    0.0000 H   0  0  0  0  0  0  0  0  0  0  0  0
   11.1972   -0.6900    0.0000 H   0  0  0  0  0  0  0  0  0  0  0  0
   10.3503   -0.4631    0.0000 H   0  0  0  0  0  0  0  0  0  0  0  0
    6.8671   -5.8100    0.0000 H   0  0  0  0  0  0  0  0  0  0  0  0
    5.4641   -3.3800    0.0000 H   0  0  0  0  0  0  0  0  0  0  0  0
    4.0611   -5.8100    0.0000 H   0  0  0  0  0  0  0  0  0  0  0  0
    4.0611   -4.1900    0.0000 H   0  0  0  0  0  0  0  0  0  0  0  0
  1 43  1  0  0  0  0
  2 43  1  0  0  0  0
  3 43  1  0  0  0  0
  4 31  2  0  0  0  0
  5 37  2  0  0  0  0
  6 13  1  0  0  0  0
  6 14  1  0  0  0  0
  6 17  1  0  0  0  0
  7 15  1  0  0  0  0
  7 16  1  0  0  0  0
  7 18  1  0  0  0  0
  8 23  1  0  0  0  0
  8 24  1  0  0  0  0
  8 59  1  0  0  0  0
  9 24  2  0  0  0  0
  9 33  1  0  0  0  0
 10 24  1  0  0  0  0
 10 34  2  0  0  0  0
 11 29  1  0  0  0  0
 11 31  1  0  0  0  0
 11 65  1  0  0  0  0
 12 27  1  0  0  0  0
 12 37  1  0  0  0  0
 12 66  1  0  0  0  0
 13 15  1  0  0  0  0
 13 44  1  0  0  0  0
 13 45  1  0  0  0  0
 14 16  1  0  0  0  0
 14 46  1  0  0  0  0
 14 47  1  0  0  0  0
 15 48  1  0  0  0  0
 15 49  1  0  0  0  0
 16 50  1  0  0  0  0
 16 51  1  0  0  0  0
 17 19  2  0  0  0  0
 17 20  1  0  0  0  0
 18 52  1  0  0  0  0
 18 53  1  0  0  0  0
 18 54  1  0  0  0  0
 19 21  1  0  0  0  0
 19 55  1  0  0  0  0
 20 22  2  0  0  0  0
 20 56  1  0  0  0  0
 21 23  2  0  0  0  0
 21 57  1  0  0  0  0
 22 23  1  0  0  0  0
 22 58  1  0  0  0  0
 25 26  2  0  0  0  0
 25 28  1  0  0  0  0
 25 31  1  0  0  0  0
 26 30  1  0  0  0  0
 26 35  1  0  0  0  0
 27 28  2  0  0  0  0
 27 32  1  0  0  0  0
 28 60  1  0  0  0  0
 29 33  2  0  0  0  0
 29 34  1  0  0  0  0
 30 32  2  0  0  0  0
 30 61  1  0  0  0  0
 32 62  1  0  0  0  0
 33 63  1  0  0  0  0
 34 64  1  0  0  0  0
 35 67  1  0  0  0  0
 35 68  1  0  0  0  0
 35 69  1  0  0  0  0
 36 37  1  0  0  0  0
 36 38  2  0  0  0  0
 36 40  1  0  0  0  0
 38 39  1  0  0  0  0
 38 70  1  0  0  0  0
 39 41  2  0  0  0  0
 39 43  1  0  0  0  0
 40 42  2  0  0  0  0
 40 71  1  0  0  0  0
 41 42  1  0  0  0  0
 41 72  1  0  0  0  0
 42 73  1  0  0  0  0
M  END
> <PUBCHEM_COMPOUND_CID>
16118737

> <PUBCHEM_COMPOUND_CANONICALIZED>
1

> <PUBCHEM_CACTVS_COMPLEXITY>
916

> <PUBCHEM_CACTVS_HBOND_ACCEPTOR>
10

> <PUBCHEM_CACTVS_HBOND_DONOR>
3

> <PUBCHEM_CACTVS_ROTATABLE_BOND>
7

> <PUBCHEM_CACTVS_SUBSKEYS>
AAADceB7sYAAAAAAAAAAAAAAAAAAAAAAAAA8eMECAAAAAAAB1AAAHwAQAAAADAjBmhQ/0JfIEACoAjV3dACCgCk1EqAJ2CEodNiIaLLA3dGUJQholALIyacciMCOiACCQAAQAAAQAQSAACAAAAAAAAAAAA==

> <PUBCHEM_IUPAC_OPENEYE_NAME>
2-methyl-N-[2-[4-(4-methylpiperazin-1-yl)anilino]pyrimidin-5-yl]-5-[[3-(trifluoromethyl)benzoyl]amino]benzamide

> <PUBCHEM_IUPAC_CAS_NAME>
2-methyl-N-[2-[4-(4-methyl-1-piperazinyl)anilino]-5-pyrimidinyl]-5-[[oxo-[3-(trifluoromethyl)phenyl]methyl]amino]benzamide

> <PUBCHEM_IUPAC_NAME_MARKUP>
2-methyl-<I>N</I>-[2-[4-(4-methylpiperazin-1-yl)anilino]pyrimidin-5-yl]-5-[[3-(trifluoromethyl)benzoyl]amino]benzamide

> <PUBCHEM_IUPAC_NAME>
2-methyl-N-[2-[4-(4-methylpiperazin-1-yl)anilino]pyrimidin-5-yl]-5-[[3-(trifluoromethyl)benzoyl]amino]benzamide

> <PUBCHEM_IUPAC_SYSTEMATIC_NAME>
2-methyl-N-[2-[[4-(4-methylpiperazin-1-yl)phenyl]amino]pyrimidin-5-yl]-5-[[3-(trifluoromethyl)phenyl]carbonylamino]benzamide

> <PUBCHEM_IUPAC_TRADITIONAL_NAME>
2-methyl-N-[2-[4-(4-methylpiperazino)anilino]pyrimidin-5-yl]-5-[[3-(trifluoromethyl)benzoyl]amino]benzamide

> <PUBCHEM_IUPAC_INCHI>
InChI=1S/C31H30F3N7O2/c1-20-6-7-24(37-28(42)21-4-3-5-22(16-21)31(32,33)34)17-27(20)29(43)38-25-18-35-30(36-19-25)39-23-8-10-26(11-9-23)41-14-12-40(2)13-15-41/h3-11,16-19H,12-15H2,1-2H3,(H,37,42)(H,38,43)(H,35,36,39)

> <PUBCHEM_IUPAC_INCHIKEY>
YMZHRXONGJQIMG-UHFFFAOYSA-N

> <PUBCHEM_XLOGP3_AA>
4.9

> <PUBCHEM_EXACT_MASS>
589.24130771

> <PUBCHEM_MOLECULAR_FORMULA>
C31H30F3N7O2

> <PUBCHEM_MOLECULAR_WEIGHT>
589.6

> <PUBCHEM_SMILES>
CC1=C(C=C(C=C1)NC(=O)C2=CC(=CC=C2)C(F)(F)F)C(=O)NC3=CN=C(N=C3)NC4=CC=C(C=C4)N5CCN(CC5)C

> <PUBCHEM_OPENEYE_CAN_SMILES>
CC1=C(C=C(C=C1)NC(=O)C2=CC(=CC=C2)C(F)(F)F)C(=O)NC3=CN=C(N=C3)NC4=CC=C(C=C4)N5CCN(CC5)C

> <PUBCHEM_OPENEYE_ISO_SMILES>
CC1=C(C=C(C=C1)NC(=O)C2=CC(=CC=C2)C(F)(F)F)C(=O)NC3=CN=C(N=C3)NC4=CC=C(C=C4)N5CCN(CC5)C

> <PUBCHEM_CACTVS_TPSA>
102

> <PUBCHEM_MONOISOTOPIC_WEIGHT>
589.24130771

> <PUBCHEM_TOTAL_CHARGE>
0

> <PUBCHEM_HEAVY_ATOM_COUNT>
43

> <PUBCHEM_ATOM_DEF_STEREO_COUNT>
0

> <PUBCHEM_ATOM_UDEF_STEREO_COUNT>
0

> <PUBCHEM_BOND_DEF_STEREO_COUNT>
0

> <PUBCHEM_BOND_UDEF_STEREO_COUNT>
0

> <PUBCHEM_ISOTOPIC_ATOM_COUNT>
0

> <PUBCHEM_COMPONENT_COUNT>
1

> <PUBCHEM_CACTVS_TAUTO_COUNT>
-1

> <PUBCHEM_COORDINATE_TYPE>
1
5
255

> <PUBCHEM_BONDANNOTATIONS>
10  24  8
10  34  8
17  19  8
17  20  8
19  21  8
20  22  8
21  23  8
22  23  8
25  26  8
25  28  8
26  30  8
27  28  8
27  32  8
29  33  8
29  34  8
30  32  8
36  38  8
36  40  8
38  39  8
39  41  8
40  42  8
41  42  8
9  24  8
9  33  8

$$$$
