452114
  -OEChem-03202505162D

 90 88  0     1  0  0  0  0  0999 V2000
   11.5453    0.0000    0.0000 I   0  5  0  0  0  0  0  0  0  0  0  0
    7.4651    4.5369    0.0000 S   0  0  0  0  0  0  0  0  0  0  0  0
    5.7331    3.5369    0.0000 O   0  0  0  0  0  0  0  0  0  0  0  0
    0.5369    4.5369    0.0000 O   0  0  0  0  0  0  0  0  0  0  0  0
    4.0010    4.5369    0.0000 N   0  3  0  0  0  0  0  0  0  0  0  0
    4.8671    5.0369    0.0000 C   0  0  0  0  0  0  0  0  0  0  0  0
    3.1350    4.0369    0.0000 C   0  0  0  0  0  0  0  0  0  0  0  0
    5.7331    4.5369    0.0000 C   0  0  3  0  0  0  0  0  0  0  0  0
    3.5010    5.4030    0.0000 C   0  0  0  0  0  0  0  0  0  0  0  0
    4.5010    3.6709    0.0000 C   0  0  0  0  0  0  0  0  0  0  0  0
    2.2690    4.5369    0.0000 C   0  0  0  0  0  0  0  0  0  0  0  0
    6.5991    5.0369    0.0000 C   0  0  0  0  0  0  0  0  0  0  0  0
    1.4030    4.0369    0.0000 C   0  0  0  0  0  0  0  0  0  0  0  0
   13.5273    5.0369    0.0000 C   0  0  0  0  0  0  0  0  0  0  0  0
   14.3933    4.5369    0.0000 C   0  0  0  0  0  0  0  0  0  0  0  0
   12.6613    4.5369    0.0000 C   0  0  0  0  0  0  0  0  0  0  0  0
   15.2594    5.0369    0.0000 C   0  0  0  0  0  0  0  0  0  0  0  0
   11.7953    5.0369    0.0000 C   0  0  0  0  0  0  0  0  0  0  0  0
   16.1254    4.5369    0.0000 C   0  0  0  0  0  0  0  0  0  0  0  0
   10.9292    4.5369    0.0000 C   0  0  0  0  0  0  0  0  0  0  0  0
   10.0632    5.0369    0.0000 C   0  0  0  0  0  0  0  0  0  0  0  0
   16.9914    5.0369    0.0000 C   0  0  0  0  0  0  0  0  0  0  0  0
    9.1972    4.5369    0.0000 C   0  0  0  0  0  0  0  0  0  0  0  0
    8.3312    5.0369    0.0000 C   0  0  0  0  0  0  0  0  0  0  0  0
   17.8574    4.5369    0.0000 C   0  0  0  0  0  0  0  0  0  0  0  0
   18.7235    5.0369    0.0000 C   0  0  0  0  0  0  0  0  0  0  0  0
   19.5895    4.5369    0.0000 C   0  0  0  0  0  0  0  0  0  0  0  0
    6.5991    3.0369    0.0000 C   0  0  0  0  0  0  0  0  0  0  0  0
   20.4555    5.0369    0.0000 C   0  0  0  0  0  0  0  0  0  0  0  0
   21.3215    4.5369    0.0000 C   0  0  0  0  0  0  0  0  0  0  0  0
   22.1876    5.0369    0.0000 C   0  0  0  0  0  0  0  0  0  0  0  0
   23.0536    4.5369    0.0000 C   0  0  0  0  0  0  0  0  0  0  0  0
    5.2656    5.5119    0.0000 H   0  0  0  0  0  0  0  0  0  0  0  0
    4.4685    5.5119    0.0000 H   0  0  0  0  0  0  0  0  0  0  0  0
    2.7365    3.5620    0.0000 H   0  0  0  0  0  0  0  0  0  0  0  0
    3.5335    3.5620    0.0000 H   0  0  0  0  0  0  0  0  0  0  0  0
    6.2700    4.2269    0.0000 H   0  0  0  0  0  0  0  0  0  0  0  0
    4.0380    5.7130    0.0000 H   0  0  0  0  0  0  0  0  0  0  0  0
    3.1910    5.9399    0.0000 H   0  0  0  0  0  0  0  0  0  0  0  0
    2.9641    5.0930    0.0000 H   0  0  0  0  0  0  0  0  0  0  0  0
    3.9641    3.3609    0.0000 H   0  0  0  0  0  0  0  0  0  0  0  0
    4.8110    3.1340    0.0000 H   0  0  0  0  0  0  0  0  0  0  0  0
    5.0380    3.9809    0.0000 H   0  0  0  0  0  0  0  0  0  0  0  0
    2.6675    5.0119    0.0000 H   0  0  0  0  0  0  0  0  0  0  0  0
    1.8705    5.0119    0.0000 H   0  0  0  0  0  0  0  0  0  0  0  0
    6.9976    5.5119    0.0000 H   0  0  0  0  0  0  0  0  0  0  0  0
    6.2006    5.5119    0.0000 H   0  0  0  0  0  0  0  0  0  0  0  0
    1.0044    3.5620    0.0000 H   0  0  0  0  0  0  0  0  0  0  0  0
    1.8015    3.5620    0.0000 H   0  0  0  0  0  0  0  0  0  0  0  0
   13.9948    4.0620    0.0000 H   0  0  0  0  0  0  0  0  0  0  0  0
   14.7919    4.0620    0.0000 H   0  0  0  0  0  0  0  0  0  0  0  0
   13.9258    5.5119    0.0000 H   0  0  0  0  0  0  0  0  0  0  0  0
   13.1288    5.5119    0.0000 H   0  0  0  0  0  0  0  0  0  0  0  0
   12.2628    4.0620    0.0000 H   0  0  0  0  0  0  0  0  0  0  0  0
   13.0598    4.0620    0.0000 H   0  0  0  0  0  0  0  0  0  0  0  0
   15.6579    5.5119    0.0000 H   0  0  0  0  0  0  0  0  0  0  0  0
   14.8608    5.5119    0.0000 H   0  0  0  0  0  0  0  0  0  0  0  0
   12.1938    5.5119    0.0000 H   0  0  0  0  0  0  0  0  0  0  0  0
   11.3967    5.5119    0.0000 H   0  0  0  0  0  0  0  0  0  0  0  0
   15.7269    4.0620    0.0000 H   0  0  0  0  0  0  0  0  0  0  0  0
   16.5239    4.0620    0.0000 H   0  0  0  0  0  0  0  0  0  0  0  0
   10.5307    4.0620    0.0000 H   0  0  0  0  0  0  0  0  0  0  0  0
   11.3278    4.0620    0.0000 H   0  0  0  0  0  0  0  0  0  0  0  0
   10.4617    5.5119    0.0000 H   0  0  0  0  0  0  0  0  0  0  0  0
    9.6647    5.5119    0.0000 H   0  0  0  0  0  0  0  0  0  0  0  0
   17.3899    5.5119    0.0000 H   0  0  0  0  0  0  0  0  0  0  0  0
   16.5929    5.5119    0.0000 H   0  0  0  0  0  0  0  0  0  0  0  0
    8.7987    4.0620    0.0000 H   0  0  0  0  0  0  0  0  0  0  0  0
    9.5957    4.0620    0.0000 H   0  0  0  0  0  0  0  0  0  0  0  0
    8.7297    5.5119    0.0000 H   0  0  0  0  0  0  0  0  0  0  0  0
    7.9326    5.5119    0.0000 H   0  0  0  0  0  0  0  0  0  0  0  0
   17.4589    4.0620    0.0000 H   0  0  0  0  0  0  0  0  0  0  0  0
   18.2560    4.0620    0.0000 H   0  0  0  0  0  0  0  0  0  0  0  0
   19.1220    5.5119    0.0000 H   0  0  0  0  0  0  0  0  0  0  0  0
   18.3249    5.5119    0.0000 H   0  0  0  0  0  0  0  0  0  0  0  0
   19.1910    4.0620    0.0000 H   0  0  0  0  0  0  0  0  0  0  0  0
   19.9880    4.0620    0.0000 H   0  0  0  0  0  0  0  0  0  0  0  0
    6.2891    2.5000    0.0000 H   0  0  0  0  0  0  0  0  0  0  0  0
    7.1360    2.7269    0.0000 H   0  0  0  0  0  0  0  0  0  0  0  0
    6.9091    3.5739    0.0000 H   0  0  0  0  0  0  0  0  0  0  0  0
   20.8540    5.5119    0.0000 H   0  0  0  0  0  0  0  0  0  0  0  0
   20.0570    5.5119    0.0000 H   0  0  0  0  0  0  0  0  0  0  0  0
    0.0000    4.2269    0.0000 H   0  0  0  0  0  0  0  0  0  0  0  0
   20.9230    4.0620    0.0000 H   0  0  0  0  0  0  0  0  0  0  0  0
   21.7201    4.0620    0.0000 H   0  0  0  0  0  0  0  0  0  0  0  0
   22.5861    5.5119    0.0000 H   0  0  0  0  0  0  0  0  0  0  0  0
   21.7890    5.5119    0.0000 H   0  0  0  0  0  0  0  0  0  0  0  0
   22.7436    4.0000    0.0000 H   0  0  0  0  0  0  0  0  0  0  0  0
   23.5905    4.2269    0.0000 H   0  0  0  0  0  0  0  0  0  0  0  0
   23.3636    5.0739    0.0000 H   0  0  0  0  0  0  0  0  0  0  0  0
  2 12  1  0  0  0  0
  2 24  1  0  0  0  0
  3  8  1  0  0  0  0
  3 28  1  0  0  0  0
  4 13  1  0  0  0  0
  4 83  1  0  0  0  0
  5  6  1  0  0  0  0
  5  7  1  0  0  0  0
  5  9  1  0  0  0  0
  5 10  1  0  0  0  0
  6  8  1  0  0  0  0
  6 33  1  0  0  0  0
  6 34  1  0  0  0  0
  7 11  1  0  0  0  0
  7 35  1  0  0  0  0
  7 36  1  0  0  0  0
  8 12  1  0  0  0  0
  8 37  1  0  0  0  0
  9 38  1  0  0  0  0
  9 39  1  0  0  0  0
  9 40  1  0  0  0  0
 10 41  1  0  0  0  0
 10 42  1  0  0  0  0
 10 43  1  0  0  0  0
 11 13  1  0  0  0  0
 11 44  1  0  0  0  0
 11 45  1  0  0  0  0
 12 46  1  0  0  0  0
 12 47  1  0  0  0  0
 13 48  1  0  0  0  0
 13 49  1  0  0  0  0
 14 15  1  0  0  0  0
 14 16  1  0  0  0  0
 14 52  1  0  0  0  0
 14 53  1  0  0  0  0
 15 17  1  0  0  0  0
 15 50  1  0  0  0  0
 15 51  1  0  0  0  0
 16 18  1  0  0  0  0
 16 54  1  0  0  0  0
 16 55  1  0  0  0  0
 17 19  1  0  0  0  0
 17 56  1  0  0  0  0
 17 57  1  0  0  0  0
 18 20  1  0  0  0  0
 18 58  1  0  0  0  0
 18 59  1  0  0  0  0
 19 22  1  0  0  0  0
 19 60  1  0  0  0  0
 19 61  1  0  0  0  0
 20 21  1  0  0  0  0
 20 62  1  0  0  0  0
 20 63  1  0  0  0  0
 21 23  1  0  0  0  0
 21 64  1  0  0  0  0
 21 65  1  0  0  0  0
 22 25  1  0  0  0  0
 22 66  1  0  0  0  0
 22 67  1  0  0  0  0
 23 24  1  0  0  0  0
 23 68  1  0  0  0  0
 23 69  1  0  0  0  0
 24 70  1  0  0  0  0
 24 71  1  0  0  0  0
 25 26  1  0  0  0  0
 25 72  1  0  0  0  0
 25 73  1  0  0  0  0
 26 27  1  0  0  0  0
 26 74  1  0  0  0  0
 26 75  1  0  0  0  0
 27 29  1  0  0  0  0
 27 76  1  0  0  0  0
 27 77  1  0  0  0  0
 28 78  1  0  0  0  0
 28 79  1  0  0  0  0
 28 80  1  0  0  0  0
 29 30  1  0  0  0  0
 29 81  1  0  0  0  0
 29 82  1  0  0  0  0
 30 31  1  0  0  0  0
 30 84  1  0  0  0  0
 30 85  1  0  0  0  0
 31 32  1  0  0  0  0
 31 86  1  0  0  0  0
 31 87  1  0  0  0  0
 32 88  1  0  0  0  0
 32 89  1  0  0  0  0
 32 90  1  0  0  0  0
M  CHG  2   1  -1   5   1
M  END
> <PUBCHEM_COMPOUND_CID>
452114

> <PUBCHEM_COMPOUND_CANONICALIZED>
1

> <PUBCHEM_CACTVS_COMPLEXITY>
352

> <PUBCHEM_CACTVS_HBOND_ACCEPTOR>
4

> <PUBCHEM_CACTVS_HBOND_DONOR>
1

> <PUBCHEM_CACTVS_ROTATABLE_BOND>
25

> <PUBCHEM_CACTVS_SUBSKEYS>
AAADcfB6MABAAgAAAAAAAAAAAAAAAAAAAAAAAAAAAAAAAAAAAAAAHgQACAAACBTlwAaCAAMABggAAAAAAAAAAAAAABAAAAAIAAACEAIgAAAFQAACAACwAAEAgIAAAAAAAAAAAAAAAAAAAAAAAAAAAAAAAA==

> <PUBCHEM_IUPAC_OPENEYE_NAME>
3-hydroxypropyl-(2-methoxy-3-octadecylsulfanyl-propyl)-dimethyl-ammonium;iodide

> <PUBCHEM_IUPAC_CAS_NAME>
3-hydroxypropyl-[2-methoxy-3-(octadecylthio)propyl]-dimethylammonium;iodide

> <PUBCHEM_IUPAC_NAME_MARKUP>
3-hydroxypropyl-(2-methoxy-3-octadecylsulfanylpropyl)-dimethylazanium;iodide

> <PUBCHEM_IUPAC_NAME>
3-hydroxypropyl-(2-methoxy-3-octadecylsulfanylpropyl)-dimethylazanium;iodide

> <PUBCHEM_IUPAC_SYSTEMATIC_NAME>
(2-methoxy-3-octadecylsulfanyl-propyl)-dimethyl-(3-oxidanylpropyl)azanium;iodide

> <PUBCHEM_IUPAC_TRADITIONAL_NAME>
3-hydroxypropyl-[2-methoxy-3-(stearylthio)propyl]-dimethyl-ammonium;iodide

> <PUBCHEM_IUPAC_INCHI>
InChI=1S/C27H58NO2S.HI/c1-5-6-7-8-9-10-11-12-13-14-15-16-17-18-19-20-24-31-26-27(30-4)25-28(2,3)22-21-23-29;/h27,29H,5-26H2,1-4H3;1H/q+1;/p-1

> <PUBCHEM_IUPAC_INCHIKEY>
IHOUGVVNZWYVIB-UHFFFAOYSA-M

> <PUBCHEM_EXACT_MASS>
587.32330

> <PUBCHEM_MOLECULAR_FORMULA>
C27H58INO2S

> <PUBCHEM_MOLECULAR_WEIGHT>
587.7

> <PUBCHEM_SMILES>
CCCCCCCCCCCCCCCCCCSCC(C[N+](C)(C)CCCO)OC.[I-]

> <PUBCHEM_OPENEYE_CAN_SMILES>
CCCCCCCCCCCCCCCCCCSCC(C[N+](C)(C)CCCO)OC.[I-]

> <PUBCHEM_OPENEYE_ISO_SMILES>
CCCCCCCCCCCCCCCCCCSCC(C[N+](C)(C)CCCO)OC.[I-]

> <PUBCHEM_CACTVS_TPSA>
54.8

> <PUBCHEM_MONOISOTOPIC_WEIGHT>
587.32330

> <PUBCHEM_TOTAL_CHARGE>
0

> <PUBCHEM_HEAVY_ATOM_COUNT>
32

> <PUBCHEM_ATOM_DEF_STEREO_COUNT>
0

> <PUBCHEM_ATOM_UDEF_STEREO_COUNT>
1

> <PUBCHEM_BOND_DEF_STEREO_COUNT>
0

> <PUBCHEM_BOND_UDEF_STEREO_COUNT>
0

> <PUBCHEM_ISOTOPIC_ATOM_COUNT>
0

> <PUBCHEM_COMPONENT_COUNT>
2

> <PUBCHEM_CACTVS_TAUTO_COUNT>
-1

> <PUBCHEM_COORDINATE_TYPE>
1
5
255

> <PUBCHEM_BONDANNOTATIONS>
8  6  3

$$$$
