49830454
  -OEChem-03202501362D

 61 65  0     1  0  0  0  0  0999 V2000
    9.7884    3.5160    0.0000 Cl  0  0  0  0  0  0  0  0  0  0  0  0
    7.2566   -1.4428    0.0000 O   0  0  0  0  0  0  0  0  0  0  0  0
    5.8279    5.3364    0.0000 O   0  0  0  0  0  0  0  0  0  0  0  0
    4.6783   -5.3658    0.0000 N   0  0  0  0  0  0  0  0  0  0  0  0
    6.6353   -3.3439    0.0000 N   0  0  0  0  0  0  0  0  0  0  0  0
    8.8564    0.6644    0.0000 N   0  0  0  0  0  0  0  0  0  0  0  0
    4.5387    4.1797    0.0000 N   0  0  0  0  0  0  0  0  0  0  0  0
    4.9889   -2.8058    0.0000 C   0  0  0  0  0  0  0  0  0  0  0  0
    5.9674   -2.5996    0.0000 C   0  0  3  0  0  0  0  0  0  0  0  0
    4.6783   -3.7563    0.0000 C   0  0  0  0  0  0  0  0  0  0  0  0
    3.7320   -4.0610    0.0000 C   0  0  0  0  0  0  0  0  0  0  0  0
    6.2781   -1.6491    0.0000 C   0  0  0  0  0  0  0  0  0  0  0  0
    3.7320   -5.0610    0.0000 C   0  0  0  0  0  0  0  0  0  0  0  0
    5.2619   -4.5610    0.0000 C   0  0  0  0  0  0  0  0  0  0  0  0
    2.8660   -3.5610    0.0000 C   0  0  0  0  0  0  0  0  0  0  0  0
    2.8660   -5.5610    0.0000 C   0  0  0  0  0  0  0  0  0  0  0  0
    2.0000   -4.0610    0.0000 C   0  0  0  0  0  0  0  0  0  0  0  0
    2.0000   -5.0610    0.0000 C   0  0  0  0  0  0  0  0  0  0  0  0
    7.5673   -0.4923    0.0000 C   0  0  0  0  0  0  0  0  0  0  0  0
    7.2101    1.2025    0.0000 C   0  0  0  0  0  0  0  0  0  0  0  0
    6.5422    1.9468    0.0000 C   0  0  0  0  0  0  0  0  0  0  0  0
    6.8994    0.2520    0.0000 C   0  0  0  0  0  0  0  0  0  0  0  0
    6.1851    3.6416    0.0000 C   0  0  0  0  0  0  0  0  0  0  0  0
    6.8529    2.8973    0.0000 C   0  0  0  0  0  0  0  0  0  0  0  0
    8.5458   -0.2861    0.0000 C   0  0  0  0  0  0  0  0  0  0  0  0
    5.5637    1.7406    0.0000 C   0  0  0  0  0  0  0  0  0  0  0  0
    5.2066    3.4354    0.0000 C   0  0  0  0  0  0  0  0  0  0  0  0
    8.1886    1.4087    0.0000 C   0  0  0  0  0  0  0  0  0  0  0  0
    4.8959    2.4849    0.0000 C   0  0  0  0  0  0  0  0  0  0  0  0
    6.4957    4.5922    0.0000 C   0  0  0  0  0  0  0  0  0  0  0  0
    7.4742    4.7984    0.0000 C   0  0  0  0  0  0  0  0  0  0  0  0
    8.1421    4.0541    0.0000 C   0  0  0  0  0  0  0  0  0  0  0  0
    7.7849    5.7489    0.0000 C   0  0  0  0  0  0  0  0  0  0  0  0
    9.1206    4.2603    0.0000 C   0  0  0  0  0  0  0  0  0  0  0  0
    8.7634    5.9551    0.0000 C   0  0  0  0  0  0  0  0  0  0  0  0
    9.4312    5.2108    0.0000 C   0  0  0  0  0  0  0  0  0  0  0  0
    4.9684   -2.1861    0.0000 H   0  0  0  0  0  0  0  0  0  0  0  0
    4.3751   -2.7184    0.0000 H   0  0  0  0  0  0  0  0  0  0  0  0
    5.7748   -3.1889    0.0000 H   0  0  0  0  0  0  0  0  0  0  0  0
    6.2575   -1.0294    0.0000 H   0  0  0  0  0  0  0  0  0  0  0  0
    5.6643   -1.5617    0.0000 H   0  0  0  0  0  0  0  0  0  0  0  0
    5.8819   -4.5610    0.0000 H   0  0  0  0  0  0  0  0  0  0  0  0
    4.8709   -5.9551    0.0000 H   0  0  0  0  0  0  0  0  0  0  0  0
    2.8660   -2.9410    0.0000 H   0  0  0  0  0  0  0  0  0  0  0  0
    7.2420   -3.2160    0.0000 H   0  0  0  0  0  0  0  0  0  0  0  0
    6.4427   -3.9332    0.0000 H   0  0  0  0  0  0  0  0  0  0  0  0
    2.8660   -6.1810    0.0000 H   0  0  0  0  0  0  0  0  0  0  0  0
    1.4631   -3.7510    0.0000 H   0  0  0  0  0  0  0  0  0  0  0  0
    1.4631   -5.3710    0.0000 H   0  0  0  0  0  0  0  0  0  0  0  0
    6.2928    0.1241    0.0000 H   0  0  0  0  0  0  0  0  0  0  0  0
    7.4596    3.0252    0.0000 H   0  0  0  0  0  0  0  0  0  0  0  0
    8.9598   -0.7476    0.0000 H   0  0  0  0  0  0  0  0  0  0  0  0
    5.3711    1.1513    0.0000 H   0  0  0  0  0  0  0  0  0  0  0  0
    8.3812    1.9980    0.0000 H   0  0  0  0  0  0  0  0  0  0  0  0
    4.2892    2.3570    0.0000 H   0  0  0  0  0  0  0  0  0  0  0  0
    3.9320    4.0518    0.0000 H   0  0  0  0  0  0  0  0  0  0  0  0
    4.7313    4.7690    0.0000 H   0  0  0  0  0  0  0  0  0  0  0  0
    7.9495    3.4647    0.0000 H   0  0  0  0  0  0  0  0  0  0  0  0
    7.3708    6.2104    0.0000 H   0  0  0  0  0  0  0  0  0  0  0  0
    8.9560    6.5444    0.0000 H   0  0  0  0  0  0  0  0  0  0  0  0
   10.0379    5.3387    0.0000 H   0  0  0  0  0  0  0  0  0  0  0  0
  1 34  1  0  0  0  0
  2 12  1  0  0  0  0
  2 19  1  0  0  0  0
  3 30  2  0  0  0  0
  4 13  1  0  0  0  0
  4 14  1  0  0  0  0
  4 43  1  0  0  0  0
  5  9  1  0  0  0  0
  5 45  1  0  0  0  0
  5 46  1  0  0  0  0
  6 25  1  0  0  0  0
  6 28  2  0  0  0  0
  7 27  1  0  0  0  0
  7 56  1  0  0  0  0
  7 57  1  0  0  0  0
  8  9  1  0  0  0  0
  8 10  1  0  0  0  0
  8 37  1  0  0  0  0
  8 38  1  0  0  0  0
  9 12  1  0  0  0  0
  9 39  1  0  0  0  0
 10 11  1  0  0  0  0
 10 14  2  0  0  0  0
 11 13  1  0  0  0  0
 11 15  2  0  0  0  0
 12 40  1  0  0  0  0
 12 41  1  0  0  0  0
 13 16  2  0  0  0  0
 14 42  1  0  0  0  0
 15 17  1  0  0  0  0
 15 44  1  0  0  0  0
 16 18  1  0  0  0  0
 16 47  1  0  0  0  0
 17 18  2  0  0  0  0
 17 48  1  0  0  0  0
 18 49  1  0  0  0  0
 19 22  1  0  0  0  0
 19 25  2  0  0  0  0
 20 21  1  0  0  0  0
 20 22  2  0  0  0  0
 20 28  1  0  0  0  0
 21 24  2  0  0  0  0
 21 26  1  0  0  0  0
 22 50  1  0  0  0  0
 23 24  1  0  0  0  0
 23 27  2  0  0  0  0
 23 30  1  0  0  0  0
 24 51  1  0  0  0  0
 25 52  1  0  0  0  0
 26 29  2  0  0  0  0
 26 53  1  0  0  0  0
 27 29  1  0  0  0  0
 28 54  1  0  0  0  0
 29 55  1  0  0  0  0
 30 31  1  0  0  0  0
 31 32  2  0  0  0  0
 31 33  1  0  0  0  0
 32 34  1  0  0  0  0
 32 58  1  0  0  0  0
 33 35  2  0  0  0  0
 33 59  1  0  0  0  0
 34 36  2  0  0  0  0
 35 36  1  0  0  0  0
 35 60  1  0  0  0  0
 36 61  1  0  0  0  0
M  END
> <PUBCHEM_COMPOUND_CID>
49830454

> <PUBCHEM_COMPOUND_CANONICALIZED>
1

> <PUBCHEM_CACTVS_COMPLEXITY>
725

> <PUBCHEM_CACTVS_HBOND_ACCEPTOR>
5

> <PUBCHEM_CACTVS_HBOND_DONOR>
3

> <PUBCHEM_CACTVS_ROTATABLE_BOND>
8

> <PUBCHEM_CACTVS_SUBSKEYS>
AAADceB7sAAEAAAAAAAAAAAAAAAAAWAAAAA8YMEAAAAAAFgB/AAAHgIQAAAADC7hniY8xvLJlACoA7R3RASCiCA1ZyAI2aE/btgOJvrFt5uHOajk0BHY6ce42PKOiAACIAACAAAQAARAAAQAAAAAAAAAAA==

> <PUBCHEM_IUPAC_OPENEYE_NAME>
[2-amino-5-[5-[2-amino-3-(1H-indol-3-yl)propoxy]-3-pyridyl]phenyl]-(3-chlorophenyl)methanone

> <PUBCHEM_IUPAC_CAS_NAME>
[2-amino-5-[5-[2-amino-3-(1H-indol-3-yl)propoxy]-3-pyridinyl]phenyl]-(3-chlorophenyl)methanone

> <PUBCHEM_IUPAC_NAME_MARKUP>
[2-amino-5-[5-[2-amino-3-(1<I>H</I>-indol-3-yl)propoxy]pyridin-3-yl]phenyl]-(3-chlorophenyl)methanone

> <PUBCHEM_IUPAC_NAME>
[2-amino-5-[5-[2-amino-3-(1H-indol-3-yl)propoxy]pyridin-3-yl]phenyl]-(3-chlorophenyl)methanone

> <PUBCHEM_IUPAC_SYSTEMATIC_NAME>
[2-azanyl-5-[5-[2-azanyl-3-(1H-indol-3-yl)propoxy]pyridin-3-yl]phenyl]-(3-chlorophenyl)methanone

> <PUBCHEM_IUPAC_TRADITIONAL_NAME>
[2-amino-5-[5-[2-amino-3-(1H-indol-3-yl)propoxy]-3-pyridyl]phenyl]-(3-chlorophenyl)methanone

> <PUBCHEM_IUPAC_INCHI>
InChI=1S/C29H25ClN4O2/c30-22-5-3-4-19(10-22)29(35)26-13-18(8-9-27(26)32)20-12-24(16-33-14-20)36-17-23(31)11-21-15-34-28-7-2-1-6-25(21)28/h1-10,12-16,23,34H,11,17,31-32H2

> <PUBCHEM_IUPAC_INCHIKEY>
JMSLHIHVUFAAJQ-UHFFFAOYSA-N

> <PUBCHEM_XLOGP3_AA>
5.5

> <PUBCHEM_EXACT_MASS>
496.1666037

> <PUBCHEM_MOLECULAR_FORMULA>
C29H25ClN4O2

> <PUBCHEM_MOLECULAR_WEIGHT>
497.0

> <PUBCHEM_SMILES>
C1=CC=C2C(=C1)C(=CN2)CC(COC3=CN=CC(=C3)C4=CC(=C(C=C4)N)C(=O)C5=CC(=CC=C5)Cl)N

> <PUBCHEM_OPENEYE_CAN_SMILES>
C1=CC=C2C(=C1)C(=CN2)CC(COC3=CN=CC(=C3)C4=CC(=C(C=C4)N)C(=O)C5=CC(=CC=C5)Cl)N

> <PUBCHEM_OPENEYE_ISO_SMILES>
C1=CC=C2C(=C1)C(=CN2)CC(COC3=CN=CC(=C3)C4=CC(=C(C=C4)N)C(=O)C5=CC(=CC=C5)Cl)N

> <PUBCHEM_CACTVS_TPSA>
107

> <PUBCHEM_MONOISOTOPIC_WEIGHT>
496.1666037

> <PUBCHEM_TOTAL_CHARGE>
0

> <PUBCHEM_HEAVY_ATOM_COUNT>
36

> <PUBCHEM_ATOM_DEF_STEREO_COUNT>
0

> <PUBCHEM_ATOM_UDEF_STEREO_COUNT>
1

> <PUBCHEM_BOND_DEF_STEREO_COUNT>
0

> <PUBCHEM_BOND_UDEF_STEREO_COUNT>
0

> <PUBCHEM_ISOTOPIC_ATOM_COUNT>
0

> <PUBCHEM_COMPONENT_COUNT>
1

> <PUBCHEM_CACTVS_TAUTO_COUNT>
-1

> <PUBCHEM_COORDINATE_TYPE>
1
5
255

> <PUBCHEM_BONDANNOTATIONS>
10  11  8
10  14  8
11  13  8
11  15  8
13  16  8
15  17  8
16  18  8
17  18  8
19  22  8
19  25  8
20  22  8
20  28  8
21  24  8
21  26  8
23  24  8
23  27  8
26  29  8
27  29  8
31  32  8
31  33  8
32  34  8
33  35  8
34  36  8
35  36  8
4  13  8
4  14  8
9  5  3
6  25  8
6  28  8

$$$$
