11477626
  -OEChem-03202505492D

 62 65  0     1  0  0  0  0  0999 V2000
    8.0622    3.2705    0.0000 F   0  0  0  0  0  0  0  0  0  0  0  0
    4.5981    3.2705    0.0000 F   0  0  0  0  0  0  0  0  0  0  0  0
   15.0458   -1.6525    0.0000 O   0  0  0  0  0  0  0  0  0  0  0  0
   12.9580   -1.5955    0.0000 O   0  0  0  0  0  0  0  0  0  0  0  0
   11.4580   -2.4615    0.0000 O   0  0  0  0  0  0  0  0  0  0  0  0
    4.5981    0.2705    0.0000 O   0  0  0  0  0  0  0  0  0  0  0  0
    2.8660    1.2705    0.0000 O   0  0  0  0  0  0  0  0  0  0  0  0
    8.9282   -1.2295    0.0000 N   0  0  0  0  0  0  0  0  0  0  0  0
   11.4580   -0.7295    0.0000 N   0  0  0  0  0  0  0  0  0  0  0  0
    8.0622    1.2705    0.0000 N   0  0  0  0  0  0  0  0  0  0  0  0
    8.0622   -1.7295    0.0000 N   0  0  0  0  0  0  0  0  0  0  0  0
    7.1962   -0.2295    0.0000 N   0  0  0  0  0  0  0  0  0  0  0  0
    3.7320    1.7705    0.0000 N   0  0  0  0  0  0  0  0  0  0  0  0
   14.4580   -2.4615    0.0000 C   0  0  3  0  0  0  0  0  0  0  0  0
   15.0458   -3.2705    0.0000 C   0  0  0  0  0  0  0  0  0  0  0  0
   15.9969   -2.9615    0.0000 C   0  0  0  0  0  0  0  0  0  0  0  0
   15.9969   -1.9615    0.0000 C   0  0  0  0  0  0  0  0  0  0  0  0
   13.4580   -2.4615    0.0000 C   0  0  0  0  0  0  0  0  0  0  0  0
    9.8744    0.0753    0.0000 C   0  0  0  0  0  0  0  0  0  0  0  0
   10.1851    1.0258    0.0000 C   0  0  0  0  0  0  0  0  0  0  0  0
    8.9282   -0.2295    0.0000 C   0  0  0  0  0  0  0  0  0  0  0  0
   10.4580   -0.7295    0.0000 C   0  0  0  0  0  0  0  0  0  0  0  0
    9.8744   -1.5342    0.0000 C   0  0  0  0  0  0  0  0  0  0  0  0
   11.1636    1.2320    0.0000 C   0  0  0  0  0  0  0  0  0  0  0  0
    9.5172    1.7701    0.0000 C   0  0  0  0  0  0  0  0  0  0  0  0
    8.0622    0.2705    0.0000 C   0  0  0  0  0  0  0  0  0  0  0  0
   11.9580   -1.5955    0.0000 C   0  0  0  0  0  0  0  0  0  0  0  0
    7.1962   -1.2295    0.0000 C   0  0  0  0  0  0  0  0  0  0  0  0
    7.1962    1.7705    0.0000 C   0  0  0  0  0  0  0  0  0  0  0  0
    6.3301    1.2705    0.0000 C   0  0  0  0  0  0  0  0  0  0  0  0
    7.1962    2.7705    0.0000 C   0  0  0  0  0  0  0  0  0  0  0  0
    5.4641    1.7705    0.0000 C   0  0  0  0  0  0  0  0  0  0  0  0
    6.3301    3.2705    0.0000 C   0  0  0  0  0  0  0  0  0  0  0  0
    5.4641    2.7705    0.0000 C   0  0  0  0  0  0  0  0  0  0  0  0
    4.5981    1.2705    0.0000 C   0  0  0  0  0  0  0  0  0  0  0  0
    2.0000    1.7705    0.0000 C   0  0  0  0  0  0  0  0  0  0  0  0
   14.1766   -1.9091    0.0000 H   0  0  0  0  0  0  0  0  0  0  0  0
   14.5089   -3.5805    0.0000 H   0  0  0  0  0  0  0  0  0  0  0  0
   15.2980   -3.8369    0.0000 H   0  0  0  0  0  0  0  0  0  0  0  0
   16.1258   -3.5680    0.0000 H   0  0  0  0  0  0  0  0  0  0  0  0
   16.6135   -2.8967    0.0000 H   0  0  0  0  0  0  0  0  0  0  0  0
   16.6135   -2.0263    0.0000 H   0  0  0  0  0  0  0  0  0  0  0  0
   16.1258   -1.3551    0.0000 H   0  0  0  0  0  0  0  0  0  0  0  0
   12.8754   -2.6736    0.0000 H   0  0  0  0  0  0  0  0  0  0  0  0
   13.5657   -3.0721    0.0000 H   0  0  0  0  0  0  0  0  0  0  0  0
   10.3777    1.6151    0.0000 H   0  0  0  0  0  0  0  0  0  0  0  0
   10.0670   -2.1235    0.0000 H   0  0  0  0  0  0  0  0  0  0  0  0
   11.2914    0.6253    0.0000 H   0  0  0  0  0  0  0  0  0  0  0  0
   11.7703    1.3599    0.0000 H   0  0  0  0  0  0  0  0  0  0  0  0
   11.0357    1.8387    0.0000 H   0  0  0  0  0  0  0  0  0  0  0  0
    9.9787    2.1841    0.0000 H   0  0  0  0  0  0  0  0  0  0  0  0
    9.1032    2.2316    0.0000 H   0  0  0  0  0  0  0  0  0  0  0  0
    9.0558    1.3560    0.0000 H   0  0  0  0  0  0  0  0  0  0  0  0
   11.7680   -0.1925    0.0000 H   0  0  0  0  0  0  0  0  0  0  0  0
    8.5991    1.5805    0.0000 H   0  0  0  0  0  0  0  0  0  0  0  0
    6.6592   -1.5395    0.0000 H   0  0  0  0  0  0  0  0  0  0  0  0
    6.3301    0.6505    0.0000 H   0  0  0  0  0  0  0  0  0  0  0  0
    6.3301    3.8905    0.0000 H   0  0  0  0  0  0  0  0  0  0  0  0
    3.7320    2.3905    0.0000 H   0  0  0  0  0  0  0  0  0  0  0  0
    2.3100    2.3075    0.0000 H   0  0  0  0  0  0  0  0  0  0  0  0
    1.4631    2.0805    0.0000 H   0  0  0  0  0  0  0  0  0  0  0  0
    1.6900    1.2336    0.0000 H   0  0  0  0  0  0  0  0  0  0  0  0
  1 31  1  0  0  0  0
  2 34  1  0  0  0  0
  3 14  1  0  0  0  0
  3 17  1  0  0  0  0
  4 18  1  0  0  0  0
  4 27  1  0  0  0  0
  5 27  2  0  0  0  0
  6 35  2  0  0  0  0
  7 13  1  0  0  0  0
  7 36  1  0  0  0  0
  8 11  1  0  0  0  0
  8 21  1  0  0  0  0
  8 23  1  0  0  0  0
  9 22  1  0  0  0  0
  9 27  1  0  0  0  0
  9 54  1  0  0  0  0
 10 26  1  0  0  0  0
 10 29  1  0  0  0  0
 10 55  1  0  0  0  0
 11 28  2  0  0  0  0
 12 26  2  0  0  0  0
 12 28  1  0  0  0  0
 13 35  1  0  0  0  0
 13 59  1  0  0  0  0
 14 15  1  0  0  0  0
 14 18  1  0  0  0  0
 14 37  1  0  0  0  0
 15 16  1  0  0  0  0
 15 38  1  0  0  0  0
 15 39  1  0  0  0  0
 16 17  1  0  0  0  0
 16 40  1  0  0  0  0
 16 41  1  0  0  0  0
 17 42  1  0  0  0  0
 17 43  1  0  0  0  0
 18 44  1  0  0  0  0
 18 45  1  0  0  0  0
 19 20  1  0  0  0  0
 19 21  2  0  0  0  0
 19 22  1  0  0  0  0
 20 24  1  0  0  0  0
 20 25  1  0  0  0  0
 20 46  1  0  0  0  0
 21 26  1  0  0  0  0
 22 23  2  0  0  0  0
 23 47  1  0  0  0  0
 24 48  1  0  0  0  0
 24 49  1  0  0  0  0
 24 50  1  0  0  0  0
 25 51  1  0  0  0  0
 25 52  1  0  0  0  0
 25 53  1  0  0  0  0
 28 56  1  0  0  0  0
 29 30  1  0  0  0  0
 29 31  2  0  0  0  0
 30 32  2  0  0  0  0
 30 57  1  0  0  0  0
 31 33  1  0  0  0  0
 32 34  1  0  0  0  0
 32 35  1  0  0  0  0
 33 34  2  0  0  0  0
 33 58  1  0  0  0  0
 36 60  1  0  0  0  0
 36 61  1  0  0  0  0
 36 62  1  0  0  0  0
M  END
> <PUBCHEM_COMPOUND_CID>
11477626

> <PUBCHEM_COMPOUND_CANONICALIZED>
1

> <PUBCHEM_CACTVS_COMPLEXITY>
767

> <PUBCHEM_CACTVS_HBOND_ACCEPTOR>
10

> <PUBCHEM_CACTVS_HBOND_DONOR>
3

> <PUBCHEM_CACTVS_ROTATABLE_BOND>
9

> <PUBCHEM_CACTVS_SUBSKEYS>
AAADceB7uYAAAAAAAAAAAAAAAAAAAWJAAAA8QAAAAAAAAFgB8AAAHwAcAAAADRzhng4/+LbYFACqAzd3fACShC81kqA12CEodNmJaHLA3NGepQhsnALKyaecqAiOgAAAQAAAAAAAAACAAAAAAAAAAAAAAA==

> <PUBCHEM_IUPAC_OPENEYE_NAME>
tetrahydrofuran-2-ylmethyl N-[4-[2,4-difluoro-5-(methoxycarbamoyl)anilino]-5-isopropyl-pyrrolo[2,1-f][1,2,4]triazin-6-yl]carbamate

> <PUBCHEM_IUPAC_CAS_NAME>
N-[4-[2,4-difluoro-5-[(methoxyamino)-oxomethyl]anilino]-5-propan-2-yl-6-pyrrolo[2,1-f][1,2,4]triazinyl]carbamic acid 2-oxolanylmethyl ester

> <PUBCHEM_IUPAC_NAME_MARKUP>
oxolan-2-ylmethyl <I>N</I>-[4-[2,4-difluoro-5-(methoxycarbamoyl)anilino]-5-propan-2-ylpyrrolo[2,1-f][1,2,4]triazin-6-yl]carbamate

> <PUBCHEM_IUPAC_NAME>
oxolan-2-ylmethyl N-[4-[2,4-difluoro-5-(methoxycarbamoyl)anilino]-5-propan-2-ylpyrrolo[2,1-f][1,2,4]triazin-6-yl]carbamate

> <PUBCHEM_IUPAC_SYSTEMATIC_NAME>
oxolan-2-ylmethyl N-[4-[[2,4-bis(fluoranyl)-5-(methoxycarbamoyl)phenyl]amino]-5-propan-2-yl-pyrrolo[2,1-f][1,2,4]triazin-6-yl]carbamate

> <PUBCHEM_IUPAC_TRADITIONAL_NAME>
N-[4-[2,4-difluoro-5-(methoxycarbamoyl)anilino]-5-isopropyl-pyrrolo[2,1-f][1,2,4]triazin-6-yl]carbamic acid tetrahydrofurfuryl ester

> <PUBCHEM_IUPAC_INCHI>
InChI=1S/C23H26F2N6O5/c1-12(2)19-18(29-23(33)36-10-13-5-4-6-35-13)9-31-20(19)21(26-11-27-31)28-17-7-14(22(32)30-34-3)15(24)8-16(17)25/h7-9,11-13H,4-6,10H2,1-3H3,(H,29,33)(H,30,32)(H,26,27,28)

> <PUBCHEM_IUPAC_INCHIKEY>
XYGDYCMPYIUPHS-UHFFFAOYSA-N

> <PUBCHEM_XLOGP3_AA>
2.9

> <PUBCHEM_EXACT_MASS>
504.19327428

> <PUBCHEM_MOLECULAR_FORMULA>
C23H26F2N6O5

> <PUBCHEM_MOLECULAR_WEIGHT>
504.5

> <PUBCHEM_SMILES>
CC(C)C1=C2C(=NC=NN2C=C1NC(=O)OCC3CCCO3)NC4=C(C=C(C(=C4)C(=O)NOC)F)F

> <PUBCHEM_OPENEYE_CAN_SMILES>
CC(C)C1=C2C(=NC=NN2C=C1NC(=O)OCC3CCCO3)NC4=C(C=C(C(=C4)C(=O)NOC)F)F

> <PUBCHEM_OPENEYE_ISO_SMILES>
CC(C)C1=C2C(=NC=NN2C=C1NC(=O)OCC3CCCO3)NC4=C(C=C(C(=C4)C(=O)NOC)F)F

> <PUBCHEM_CACTVS_TPSA>
128

> <PUBCHEM_MONOISOTOPIC_WEIGHT>
504.19327428

> <PUBCHEM_TOTAL_CHARGE>
0

> <PUBCHEM_HEAVY_ATOM_COUNT>
36

> <PUBCHEM_ATOM_DEF_STEREO_COUNT>
0

> <PUBCHEM_ATOM_UDEF_STEREO_COUNT>
1

> <PUBCHEM_BOND_DEF_STEREO_COUNT>
0

> <PUBCHEM_BOND_UDEF_STEREO_COUNT>
0

> <PUBCHEM_ISOTOPIC_ATOM_COUNT>
0

> <PUBCHEM_COMPONENT_COUNT>
1

> <PUBCHEM_CACTVS_TAUTO_COUNT>
-1

> <PUBCHEM_COORDINATE_TYPE>
1
5
255

> <PUBCHEM_BONDANNOTATIONS>
11  28  8
12  26  8
12  28  8
14  18  3
19  21  8
19  22  8
21  26  8
22  23  8
29  30  8
29  31  8
30  32  8
31  33  8
32  34  8
33  34  8
8  11  8
8  21  8
8  23  8

$$$$
