44340974
  -OEChem-03192523222D

 73 79  0     1  0  0  0  0  0999 V2000
    5.0389    0.0636    0.0000 O   0  0  0  0  0  0  0  0  0  0  0  0
    4.9924   -2.5818    0.0000 O   0  0  0  0  0  0  0  0  0  0  0  0
    3.0354   -2.1693    0.0000 O   0  0  0  0  0  0  0  0  0  0  0  0
    2.4141   -0.2683    0.0000 O   0  0  0  0  0  0  0  0  0  0  0  0
    2.7712    1.4265    0.0000 O   0  0  0  0  0  0  0  0  0  0  0  0
   10.0540   -1.6813    0.0000 O   0  0  0  0  0  0  0  0  0  0  0  0
   10.0540    1.8292    0.0000 O   0  0  0  0  0  0  0  0  0  0  0  0
    6.4871   -4.6944    0.0000 O   0  0  0  0  0  0  0  0  0  0  0  0
    5.3010    3.1799    0.0000 O   0  0  0  0  0  0  0  0  0  0  0  0
    8.5182    4.6306    0.0000 O   0  0  0  0  0  0  0  0  0  0  0  0
   13.3270   -1.6581    0.0000 O   0  0  0  0  0  0  0  0  0  0  0  0
   11.8270   -2.5242    0.0000 O   0  0  0  0  0  0  0  0  0  0  0  0
    6.3281   -1.0932    0.0000 N   0  0  0  0  0  0  0  0  0  0  0  0
    6.3281    1.2410    0.0000 N   0  0  0  0  0  0  0  0  0  0  0  0
   10.3270    0.0739    0.0000 N   0  0  0  0  0  0  0  0  0  0  0  0
   11.3270    0.0739    0.0000 N   0  0  0  0  0  0  0  0  0  0  0  0
    5.3496   -0.8869    0.0000 C   0  0  3  0  0  0  0  0  0  0  0  0
    4.6817   -1.6312    0.0000 C   0  0  3  0  0  0  0  0  0  0  0  0
    7.0651   -0.4261    0.0000 C   0  0  0  0  0  0  0  0  0  0  0  0
    3.7032   -1.4250    0.0000 C   0  0  3  0  0  0  0  0  0  0  0  0
    3.3926   -0.4745    0.0000 C   0  0  3  0  0  0  0  0  0  0  0  0
    7.9311   -0.9261    0.0000 C   0  0  0  0  0  0  0  0  0  0  0  0
    4.0604    0.2698    0.0000 C   0  0  3  0  0  0  0  0  0  0  0  0
    6.7332   -2.0009    0.0000 C   0  0  0  0  0  0  0  0  0  0  0  0
    7.0651    0.5739    0.0000 C   0  0  0  0  0  0  0  0  0  0  0  0
    7.7219   -1.8979    0.0000 C   0  0  0  0  0  0  0  0  0  0  0  0
    8.7972   -0.4261    0.0000 C   0  0  0  0  0  0  0  0  0  0  0  0
    7.9311    1.0739    0.0000 C   0  0  0  0  0  0  0  0  0  0  0  0
    8.7972    0.5739    0.0000 C   0  0  0  0  0  0  0  0  0  0  0  0
    7.7219    2.0458    0.0000 C   0  0  0  0  0  0  0  0  0  0  0  0
    3.7498    1.2203    0.0000 C   0  0  0  0  0  0  0  0  0  0  0  0
    6.7332    2.1488    0.0000 C   0  0  0  0  0  0  0  0  0  0  0  0
    9.7434   -0.7308    0.0000 C   0  0  0  0  0  0  0  0  0  0  0  0
    6.2967   -2.9399    0.0000 C   0  0  0  0  0  0  0  0  0  0  0  0
    9.7434    0.8787    0.0000 C   0  0  0  0  0  0  0  0  0  0  0  0
    8.3427   -2.7266    0.0000 C   0  0  0  0  0  0  0  0  0  0  0  0
    6.8981   -3.7828    0.0000 C   0  0  0  0  0  0  0  0  0  0  0  0
    7.9280   -3.6754    0.0000 C   0  0  0  0  0  0  0  0  0  0  0  0
    8.3427    2.8745    0.0000 C   0  0  0  0  0  0  0  0  0  0  0  0
    6.2967    3.0878    0.0000 C   0  0  0  0  0  0  0  0  0  0  0  0
    7.9280    3.8233    0.0000 C   0  0  0  0  0  0  0  0  0  0  0  0
   11.8270   -0.7921    0.0000 C   0  0  0  0  0  0  0  0  0  0  0  0
    6.8981    3.9307    0.0000 C   0  0  0  0  0  0  0  0  0  0  0  0
   12.8270   -0.7921    0.0000 C   0  0  0  0  0  0  0  0  0  0  0  0
   11.3270   -1.6581    0.0000 C   0  0  0  0  0  0  0  0  0  0  0  0
    5.7636   -0.4255    0.0000 H   0  0  0  0  0  0  0  0  0  0  0  0
    5.2884   -1.7591    0.0000 H   0  0  0  0  0  0  0  0  0  0  0  0
    3.8958   -2.0143    0.0000 H   0  0  0  0  0  0  0  0  0  0  0  0
    2.9785   -0.9360    0.0000 H   0  0  0  0  0  0  0  0  0  0  0  0
    4.4745    0.7313    0.0000 H   0  0  0  0  0  0  0  0  0  0  0  0
    5.7214    1.1132    0.0000 H   0  0  0  0  0  0  0  0  0  0  0  0
    4.3636    1.3077    0.0000 H   0  0  0  0  0  0  0  0  0  0  0  0
    3.7703    1.8400    0.0000 H   0  0  0  0  0  0  0  0  0  0  0  0
    5.6793   -2.9970    0.0000 H   0  0  0  0  0  0  0  0  0  0  0  0
    8.9586   -2.6552    0.0000 H   0  0  0  0  0  0  0  0  0  0  0  0
    4.5783   -3.0432    0.0000 H   0  0  0  0  0  0  0  0  0  0  0  0
    2.4287   -2.0415    0.0000 H   0  0  0  0  0  0  0  0  0  0  0  0
    2.0000   -0.7297    0.0000 H   0  0  0  0  0  0  0  0  0  0  0  0
    8.2939   -4.1760    0.0000 H   0  0  0  0  0  0  0  0  0  0  0  0
    8.9586    2.8031    0.0000 H   0  0  0  0  0  0  0  0  0  0  0  0
   11.6370    0.6109    0.0000 H   0  0  0  0  0  0  0  0  0  0  0  0
   12.1370   -0.2552    0.0000 H   0  0  0  0  0  0  0  0  0  0  0  0
    2.5786    2.0159    0.0000 H   0  0  0  0  0  0  0  0  0  0  0  0
    6.6433    4.4959    0.0000 H   0  0  0  0  0  0  0  0  0  0  0  0
    6.8491   -5.1977    0.0000 H   0  0  0  0  0  0  0  0  0  0  0  0
   13.4096   -0.5800    0.0000 H   0  0  0  0  0  0  0  0  0  0  0  0
   12.7193   -0.1815    0.0000 H   0  0  0  0  0  0  0  0  0  0  0  0
   10.8520   -1.2596    0.0000 H   0  0  0  0  0  0  0  0  0  0  0  0
   10.8520   -2.0566    0.0000 H   0  0  0  0  0  0  0  0  0  0  0  0
    5.0418    3.7431    0.0000 H   0  0  0  0  0  0  0  0  0  0  0  0
    8.2677    5.1977    0.0000 H   0  0  0  0  0  0  0  0  0  0  0  0
   13.9470   -1.6581    0.0000 H   0  0  0  0  0  0  0  0  0  0  0  0
   11.5170   -3.0611    0.0000 H   0  0  0  0  0  0  0  0  0  0  0  0
  1 17  1  0  0  0  0
  1 23  1  0  0  0  0
  2 18  1  0  0  0  0
  2 56  1  0  0  0  0
  3 20  1  0  0  0  0
  3 57  1  0  0  0  0
  4 21  1  0  0  0  0
  4 58  1  0  0  0  0
  5 31  1  0  0  0  0
  5 63  1  0  0  0  0
  6 33  2  0  0  0  0
  7 35  2  0  0  0  0
  8 37  1  0  0  0  0
  8 65  1  0  0  0  0
  9 40  1  0  0  0  0
  9 70  1  0  0  0  0
 10 41  1  0  0  0  0
 10 71  1  0  0  0  0
 11 44  1  0  0  0  0
 11 72  1  0  0  0  0
 12 45  1  0  0  0  0
 12 73  1  0  0  0  0
 13 17  1  0  0  0  0
 13 19  1  0  0  0  0
 13 24  1  0  0  0  0
 14 25  1  0  0  0  0
 14 32  1  0  0  0  0
 14 51  1  0  0  0  0
 15 16  1  0  0  0  0
 15 33  1  0  0  0  0
 15 35  1  0  0  0  0
 16 42  1  0  0  0  0
 16 61  1  0  0  0  0
 17 18  1  0  0  0  0
 17 46  1  0  0  0  0
 18 20  1  0  0  0  0
 18 47  1  0  0  0  0
 19 22  1  0  0  0  0
 19 25  2  0  0  0  0
 20 21  1  0  0  0  0
 20 48  1  0  0  0  0
 21 23  1  0  0  0  0
 21 49  1  0  0  0  0
 22 26  1  0  0  0  0
 22 27  2  0  0  0  0
 23 31  1  0  0  0  0
 23 50  1  0  0  0  0
 24 26  2  0  0  0  0
 24 34  1  0  0  0  0
 25 28  1  0  0  0  0
 26 36  1  0  0  0  0
 27 29  1  0  0  0  0
 27 33  1  0  0  0  0
 28 29  2  0  0  0  0
 28 30  1  0  0  0  0
 29 35  1  0  0  0  0
 30 32  2  0  0  0  0
 30 39  1  0  0  0  0
 31 52  1  0  0  0  0
 31 53  1  0  0  0  0
 32 40  1  0  0  0  0
 34 37  2  0  0  0  0
 34 54  1  0  0  0  0
 36 38  2  0  0  0  0
 36 55  1  0  0  0  0
 37 38  1  0  0  0  0
 38 59  1  0  0  0  0
 39 41  2  0  0  0  0
 39 60  1  0  0  0  0
 40 43  2  0  0  0  0
 41 43  1  0  0  0  0
 42 44  1  0  0  0  0
 42 45  1  0  0  0  0
 42 62  1  0  0  0  0
 43 64  1  0  0  0  0
 44 66  1  0  0  0  0
 44 67  1  0  0  0  0
 45 68  1  0  0  0  0
 45 69  1  0  0  0  0
M  END
> <PUBCHEM_COMPOUND_CID>
44340974

> <PUBCHEM_COMPOUND_CANONICALIZED>
1

> <PUBCHEM_CACTVS_COMPLEXITY>
1150

> <PUBCHEM_CACTVS_HBOND_ACCEPTOR>
13

> <PUBCHEM_CACTVS_HBOND_DONOR>
11

> <PUBCHEM_CACTVS_ROTATABLE_BOND>
6

> <PUBCHEM_CACTVS_SUBSKEYS>
AAADceB7vAAAAAAAAAAAAAAAAAAAAWLFgAA0YMEAAAAAAFgB/gAAHgAYCAAADDzhngYwxvPvlgCoAyVyVASCgCQlciAa+aE/fNgLd/LSlZOecQhn1D3b2Qf9+fee6EADSgASECDQgAaUACQgQAAAAAAAAA==

> <PUBCHEM_IUPAC_OPENEYE_NAME>
6,19,21-trihydroxy-13-[[2-hydroxy-1-(hydroxymethyl)ethyl]amino]-3-[3,4,5-trihydroxy-6-(hydroxymethyl)tetrahydropyran-2-yl]-3,13,23-triazahexacyclo[14.7.0.02,10.04,9.011,15.017,22]tricosa-1,4(9),5,7,10,15,17(22),18,20-nonaene-12,14-dione

> <PUBCHEM_IUPAC_CAS_NAME>
13-(1,3-dihydroxypropan-2-ylamino)-6,19,21-trihydroxy-3-[3,4,5-trihydroxy-6-(hydroxymethyl)-2-oxanyl]-3,13,23-triazahexacyclo[14.7.0.02,10.04,9.011,15.017,22]tricosa-1,4(9),5,7,10,15,17(22),18,20-nonaene-12,14-dione

> <PUBCHEM_IUPAC_NAME_MARKUP>
13-(1,3-dihydroxypropan-2-ylamino)-6,19,21-trihydroxy-3-[3,4,5-trihydroxy-6-(hydroxymethyl)oxan-2-yl]-3,13,23-triazahexacyclo[14.7.0.0<SUP>2,10</SUP>.0<SUP>4,9</SUP>.0<SUP>11,15</SUP>.0<SUP>17,22</SUP>]tricosa-1,4(9),5,7,10,15,17(22),18,20-nonaene-12,14-dione

> <PUBCHEM_IUPAC_NAME>
13-(1,3-dihydroxypropan-2-ylamino)-6,19,21-trihydroxy-3-[3,4,5-trihydroxy-6-(hydroxymethyl)oxan-2-yl]-3,13,23-triazahexacyclo[14.7.0.02,10.04,9.011,15.017,22]tricosa-1,4(9),5,7,10,15,17(22),18,20-nonaene-12,14-dione

> <PUBCHEM_IUPAC_SYSTEMATIC_NAME>
13-[1,3-bis(oxidanyl)propan-2-ylamino]-3-[6-(hydroxymethyl)-3,4,5-tris(oxidanyl)oxan-2-yl]-6,19,21-tris(oxidanyl)-3,13,23-triazahexacyclo[14.7.0.02,10.04,9.011,15.017,22]tricosa-1,4(9),5,7,10,15,17(22),18,20-nonaene-12,14-dione

> <PUBCHEM_IUPAC_TRADITIONAL_NAME>
6,19,21-trihydroxy-13-[(2-hydroxy-1-methylol-ethyl)amino]-3-(3,4,5-trihydroxy-6-methylol-tetrahydropyran-2-yl)-3,13,23-triazahexacyclo[14.7.0.02,10.04,9.011,15.017,22]tricosa-1,4(9),5,7,10,15,17(22),18,20-nonaene-12,14-quinone

> <PUBCHEM_IUPAC_INCHI>
InChI=1S/C29H28N4O12/c34-6-9(7-35)31-33-27(43)19-17-13-3-11(38)5-15(39)21(13)30-22(17)23-18(20(19)28(33)44)12-2-1-10(37)4-14(12)32(23)29-26(42)25(41)24(40)16(8-36)45-29/h1-5,9,16,24-26,29-31,34-42H,6-8H2

> <PUBCHEM_IUPAC_INCHIKEY>
JPNGWDQTHCEPFM-UHFFFAOYSA-N

> <PUBCHEM_XLOGP3_AA>
-1.1

> <PUBCHEM_EXACT_MASS>
624.17037234

> <PUBCHEM_MOLECULAR_FORMULA>
C29H28N4O12

> <PUBCHEM_MOLECULAR_WEIGHT>
624.6

> <PUBCHEM_SMILES>
C1=CC2=C(C=C1O)N(C3=C4C(=C5C(=C23)C(=O)N(C5=O)NC(CO)CO)C6=C(N4)C(=CC(=C6)O)O)C7C(C(C(C(O7)CO)O)O)O

> <PUBCHEM_OPENEYE_CAN_SMILES>
C1=CC2=C(C=C1O)N(C3=C4C(=C5C(=C23)C(=O)N(C5=O)NC(CO)CO)C6=C(N4)C(=CC(=C6)O)O)C7C(C(C(C(O7)CO)O)O)O

> <PUBCHEM_OPENEYE_ISO_SMILES>
C1=CC2=C(C=C1O)N(C3=C4C(=C5C(=C23)C(=O)N(C5=O)NC(CO)CO)C6=C(N4)C(=CC(=C6)O)O)C7C(C(C(C(O7)CO)O)O)O

> <PUBCHEM_CACTVS_TPSA>
261

> <PUBCHEM_MONOISOTOPIC_WEIGHT>
624.17037234

> <PUBCHEM_TOTAL_CHARGE>
0

> <PUBCHEM_HEAVY_ATOM_COUNT>
45

> <PUBCHEM_ATOM_DEF_STEREO_COUNT>
0

> <PUBCHEM_ATOM_UDEF_STEREO_COUNT>
5

> <PUBCHEM_BOND_DEF_STEREO_COUNT>
0

> <PUBCHEM_BOND_UDEF_STEREO_COUNT>
0

> <PUBCHEM_ISOTOPIC_ATOM_COUNT>
0

> <PUBCHEM_COMPONENT_COUNT>
1

> <PUBCHEM_CACTVS_TAUTO_COUNT>
-1

> <PUBCHEM_COORDINATE_TYPE>
1
5
255

> <PUBCHEM_BONDANNOTATIONS>
17  13  3
13  19  8
13  24  8
14  25  8
14  32  8
19  22  8
19  25  8
18  2  3
22  26  8
22  27  8
23  31  3
24  26  8
24  34  8
25  28  8
26  36  8
27  29  8
28  29  8
28  30  8
20  3  3
30  32  8
30  39  8
32  40  8
34  37  8
36  38  8
37  38  8
39  41  8
21  4  3
40  43  8
41  43  8

$$$$
