2744272
  -OEChem-03202500172D

 35 37  0     0  0  0  0  0  0999 V2000
    2.0000   -0.9490    0.0000 Cl  0  0  0  0  0  0  0  0  0  0  0  0
    6.3684    0.4860    0.0000 S   0  0  0  0  0  0  0  0  0  0  0  0
    3.9890   -0.7399    0.0000 O   0  0  0  0  0  0  0  0  0  0  0  0
    4.8903    1.1442    0.0000 N   0  0  0  0  0  0  0  0  0  0  0  0
    8.2050    1.4806    0.0000 N   0  0  0  0  0  0  0  0  0  0  0  0
    9.0710    2.9806    0.0000 N   0  0  0  0  0  0  0  0  0  0  0  0
    9.9371    1.4806    0.0000 N   0  0  0  0  0  0  0  0  0  0  0  0
    6.4730    1.4806    0.0000 C   0  0  0  0  0  0  0  0  0  0  0  0
    5.5594    1.8873    0.0000 C   0  0  0  0  0  0  0  0  0  0  0  0
    5.3903    0.2781    0.0000 C   0  0  0  0  0  0  0  0  0  0  0  0
    4.9836   -0.6354    0.0000 C   0  0  0  0  0  0  0  0  0  0  0  0
    7.3390    1.9806    0.0000 C   0  0  0  0  0  0  0  0  0  0  0  0
    5.3515    2.8655    0.0000 C   0  0  0  0  0  0  0  0  0  0  0  0
    3.5823   -1.6535    0.0000 C   0  0  0  0  0  0  0  0  0  0  0  0
    7.3390    2.9806    0.0000 C   0  0  0  0  0  0  0  0  0  0  0  0
    2.5878   -1.7580    0.0000 C   0  0  0  0  0  0  0  0  0  0  0  0
    4.1701   -2.4625    0.0000 C   0  0  0  0  0  0  0  0  0  0  0  0
    8.2050    3.4806    0.0000 C   0  0  0  0  0  0  0  0  0  0  0  0
    9.0710    1.9806    0.0000 C   0  0  0  0  0  0  0  0  0  0  0  0
    2.1810   -2.6716    0.0000 C   0  0  0  0  0  0  0  0  0  0  0  0
    3.7634   -3.3760    0.0000 C   0  0  0  0  0  0  0  0  0  0  0  0
    2.7688   -3.4806    0.0000 C   0  0  0  0  0  0  0  0  0  0  0  0
    4.9403   -1.2539    0.0000 H   0  0  0  0  0  0  0  0  0  0  0  0
    5.5851   -0.7854    0.0000 H   0  0  0  0  0  0  0  0  0  0  0  0
    5.9580    2.9944    0.0000 H   0  0  0  0  0  0  0  0  0  0  0  0
    5.2226    3.4719    0.0000 H   0  0  0  0  0  0  0  0  0  0  0  0
    4.7451    2.7365    0.0000 H   0  0  0  0  0  0  0  0  0  0  0  0
    6.8021    3.2906    0.0000 H   0  0  0  0  0  0  0  0  0  0  0  0
    4.7867   -2.3977    0.0000 H   0  0  0  0  0  0  0  0  0  0  0  0
    8.2050    4.1006    0.0000 H   0  0  0  0  0  0  0  0  0  0  0  0
    1.5644   -2.7364    0.0000 H   0  0  0  0  0  0  0  0  0  0  0  0
    4.1278   -3.8776    0.0000 H   0  0  0  0  0  0  0  0  0  0  0  0
    2.5167   -4.0470    0.0000 H   0  0  0  0  0  0  0  0  0  0  0  0
   10.4740    1.7906    0.0000 H   0  0  0  0  0  0  0  0  0  0  0  0
    9.9371    0.8606    0.0000 H   0  0  0  0  0  0  0  0  0  0  0  0
  1 16  1  0  0  0  0
  2  8  1  0  0  0  0
  2 10  1  0  0  0  0
  3 11  1  0  0  0  0
  3 14  1  0  0  0  0
  4  9  1  0  0  0  0
  4 10  2  0  0  0  0
  5 12  2  0  0  0  0
  5 19  1  0  0  0  0
  6 18  1  0  0  0  0
  6 19  2  0  0  0  0
  7 19  1  0  0  0  0
  7 34  1  0  0  0  0
  7 35  1  0  0  0  0
  8  9  2  0  0  0  0
  8 12  1  0  0  0  0
  9 13  1  0  0  0  0
 10 11  1  0  0  0  0
 11 23  1  0  0  0  0
 11 24  1  0  0  0  0
 12 15  1  0  0  0  0
 13 25  1  0  0  0  0
 13 26  1  0  0  0  0
 13 27  1  0  0  0  0
 14 16  1  0  0  0  0
 14 17  2  0  0  0  0
 15 18  2  0  0  0  0
 15 28  1  0  0  0  0
 16 20  2  0  0  0  0
 17 21  1  0  0  0  0
 17 29  1  0  0  0  0
 18 30  1  0  0  0  0
 20 22  1  0  0  0  0
 20 31  1  0  0  0  0
 21 22  2  0  0  0  0
 21 32  1  0  0  0  0
 22 33  1  0  0  0  0
M  END
> <PUBCHEM_COMPOUND_CID>
2744272

> <PUBCHEM_COMPOUND_CANONICALIZED>
1

> <PUBCHEM_CACTVS_COMPLEXITY>
364

> <PUBCHEM_CACTVS_HBOND_ACCEPTOR>
6

> <PUBCHEM_CACTVS_HBOND_DONOR>
1

> <PUBCHEM_CACTVS_ROTATABLE_BOND>
4

> <PUBCHEM_CACTVS_SUBSKEYS>
AAADccBzoABEAAAAAAAAAAAAAAAAAWAAAAA8QAAAAAAAAAAB8AAAHgYQAAAACA7h1iY/l5ZIFAikATRnZASC+KlxL/gJ2DQ+b5iOLqPl+9uHPCjswBP46CeQQAAAAAAAAAAACAAAAAAAAAAQAAAAAAAAAA==

> <PUBCHEM_IUPAC_OPENEYE_NAME>
4-[2-[(2-chlorophenoxy)methyl]-4-methyl-thiazol-5-yl]pyrimidin-2-amine

> <PUBCHEM_IUPAC_CAS_NAME>
4-[2-[(2-chlorophenoxy)methyl]-4-methyl-5-thiazolyl]-2-pyrimidinamine

> <PUBCHEM_IUPAC_NAME_MARKUP>
4-[2-[(2-chlorophenoxy)methyl]-4-methyl-1,3-thiazol-5-yl]pyrimidin-2-amine

> <PUBCHEM_IUPAC_NAME>
4-[2-[(2-chlorophenoxy)methyl]-4-methyl-1,3-thiazol-5-yl]pyrimidin-2-amine

> <PUBCHEM_IUPAC_SYSTEMATIC_NAME>
4-[2-[(2-chloranylphenoxy)methyl]-4-methyl-1,3-thiazol-5-yl]pyrimidin-2-amine

> <PUBCHEM_IUPAC_TRADITIONAL_NAME>
[4-[2-[(2-chlorophenoxy)methyl]-4-methyl-thiazol-5-yl]pyrimidin-2-yl]amine

> <PUBCHEM_IUPAC_INCHI>
InChI=1S/C15H13ClN4OS/c1-9-14(11-6-7-18-15(17)20-11)22-13(19-9)8-21-12-5-3-2-4-10(12)16/h2-7H,8H2,1H3,(H2,17,18,20)

> <PUBCHEM_IUPAC_INCHIKEY>
SVUIYNKSDCANAY-UHFFFAOYSA-N

> <PUBCHEM_XLOGP3_AA>
3.1

> <PUBCHEM_EXACT_MASS>
332.0498599

> <PUBCHEM_MOLECULAR_FORMULA>
C15H13ClN4OS

> <PUBCHEM_MOLECULAR_WEIGHT>
332.8

> <PUBCHEM_SMILES>
CC1=C(SC(=N1)COC2=CC=CC=C2Cl)C3=NC(=NC=C3)N

> <PUBCHEM_OPENEYE_CAN_SMILES>
CC1=C(SC(=N1)COC2=CC=CC=C2Cl)C3=NC(=NC=C3)N

> <PUBCHEM_OPENEYE_ISO_SMILES>
CC1=C(SC(=N1)COC2=CC=CC=C2Cl)C3=NC(=NC=C3)N

> <PUBCHEM_CACTVS_TPSA>
102

> <PUBCHEM_MONOISOTOPIC_WEIGHT>
332.0498599

> <PUBCHEM_TOTAL_CHARGE>
0

> <PUBCHEM_HEAVY_ATOM_COUNT>
22

> <PUBCHEM_ATOM_DEF_STEREO_COUNT>
0

> <PUBCHEM_ATOM_UDEF_STEREO_COUNT>
0

> <PUBCHEM_BOND_DEF_STEREO_COUNT>
0

> <PUBCHEM_BOND_UDEF_STEREO_COUNT>
0

> <PUBCHEM_ISOTOPIC_ATOM_COUNT>
0

> <PUBCHEM_COMPONENT_COUNT>
1

> <PUBCHEM_CACTVS_TAUTO_COUNT>
-1

> <PUBCHEM_COORDINATE_TYPE>
1
5
255

> <PUBCHEM_BONDANNOTATIONS>
12  15  8
14  16  8
14  17  8
15  18  8
16  20  8
17  21  8
2  10  8
2  8  8
20  22  8
21  22  8
4  10  8
4  9  8
5  12  8
5  19  8
6  18  8
6  19  8
8  9  8

$$$$
