49830279
  -OEChem-03202504232D

 41 44  0     0  0  0  0  0  0999 V2000
    7.2566    0.2923    0.0000 Cl  0  0  0  0  0  0  0  0  0  0  0  0
    3.9639    1.3684    0.0000 N   0  0  0  0  0  0  0  0  0  0  0  0
    4.3211   -0.3264    0.0000 N   0  0  0  0  0  0  0  0  0  0  0  0
    5.6103    0.8304    0.0000 N   0  0  0  0  0  0  0  0  0  0  0  0
    4.6783   -3.6307    0.0000 N   0  0  0  0  0  0  0  0  0  0  0  0
    2.8660   -3.8259    0.0000 N   0  0  0  0  0  0  0  0  0  0  0  0
    4.2746    2.3190    0.0000 C   0  0  0  0  0  0  0  0  0  0  0  0
    5.2531    2.5252    0.0000 C   0  0  0  0  0  0  0  0  0  0  0  0
    3.6067    3.0633    0.0000 C   0  0  0  0  0  0  0  0  0  0  0  0
    5.5637    3.4757    0.0000 C   0  0  0  0  0  0  0  0  0  0  0  0
    3.9174    4.0138    0.0000 C   0  0  0  0  0  0  0  0  0  0  0  0
    4.8959    4.2200    0.0000 C   0  0  0  0  0  0  0  0  0  0  0  0
    4.6318    0.6241    0.0000 C   0  0  0  0  0  0  0  0  0  0  0  0
    4.9889   -1.0707    0.0000 C   0  0  0  0  0  0  0  0  0  0  0  0
    4.6783   -2.0212    0.0000 C   0  0  0  0  0  0  0  0  0  0  0  0
    3.7320   -2.3259    0.0000 C   0  0  0  0  0  0  0  0  0  0  0  0
    5.9674   -0.8645    0.0000 C   0  0  0  0  0  0  0  0  0  0  0  0
    3.7320   -3.3259    0.0000 C   0  0  0  0  0  0  0  0  0  0  0  0
    6.2781    0.0861    0.0000 C   0  0  0  0  0  0  0  0  0  0  0  0
    5.2619   -2.8259    0.0000 C   0  0  0  0  0  0  0  0  0  0  0  0
    2.8660   -1.8259    0.0000 C   0  0  0  0  0  0  0  0  0  0  0  0
    2.0000   -2.3259    0.0000 C   0  0  0  0  0  0  0  0  0  0  0  0
    2.0000   -3.3259    0.0000 C   0  0  0  0  0  0  0  0  0  0  0  0
    4.6886    1.8575    0.0000 H   0  0  0  0  0  0  0  0  0  0  0  0
    5.2736    1.9055    0.0000 H   0  0  0  0  0  0  0  0  0  0  0  0
    5.8669    2.4378    0.0000 H   0  0  0  0  0  0  0  0  0  0  0  0
    3.0598    3.3553    0.0000 H   0  0  0  0  0  0  0  0  0  0  0  0
    3.2242    2.5753    0.0000 H   0  0  0  0  0  0  0  0  0  0  0  0
    6.1107    3.1837    0.0000 H   0  0  0  0  0  0  0  0  0  0  0  0
    5.9463    3.9636    0.0000 H   0  0  0  0  0  0  0  0  0  0  0  0
    3.8968    4.6334    0.0000 H   0  0  0  0  0  0  0  0  0  0  0  0
    3.3036    4.1011    0.0000 H   0  0  0  0  0  0  0  0  0  0  0  0
    5.4222    4.5476    0.0000 H   0  0  0  0  0  0  0  0  0  0  0  0
    4.6646    4.7952    0.0000 H   0  0  0  0  0  0  0  0  0  0  0  0
    3.3572    1.2406    0.0000 H   0  0  0  0  0  0  0  0  0  0  0  0
    6.3815   -1.3259    0.0000 H   0  0  0  0  0  0  0  0  0  0  0  0
    5.8819   -2.8259    0.0000 H   0  0  0  0  0  0  0  0  0  0  0  0
    4.8709   -4.2200    0.0000 H   0  0  0  0  0  0  0  0  0  0  0  0
    2.8660   -1.2059    0.0000 H   0  0  0  0  0  0  0  0  0  0  0  0
    1.4631   -2.0159    0.0000 H   0  0  0  0  0  0  0  0  0  0  0  0
    1.4631   -3.6359    0.0000 H   0  0  0  0  0  0  0  0  0  0  0  0
  1 19  1  0  0  0  0
  2  7  1  0  0  0  0
  2 13  1  0  0  0  0
  2 35  1  0  0  0  0
  3 13  2  0  0  0  0
  3 14  1  0  0  0  0
  4 13  1  0  0  0  0
  4 19  2  0  0  0  0
  5 18  1  0  0  0  0
  5 20  1  0  0  0  0
  5 38  1  0  0  0  0
  6 18  1  0  0  0  0
  6 23  2  0  0  0  0
  7  8  1  0  0  0  0
  7  9  1  0  0  0  0
  7 24  1  0  0  0  0
  8 10  1  0  0  0  0
  8 25  1  0  0  0  0
  8 26  1  0  0  0  0
  9 11  1  0  0  0  0
  9 27  1  0  0  0  0
  9 28  1  0  0  0  0
 10 12  1  0  0  0  0
 10 29  1  0  0  0  0
 10 30  1  0  0  0  0
 11 12  1  0  0  0  0
 11 31  1  0  0  0  0
 11 32  1  0  0  0  0
 12 33  1  0  0  0  0
 12 34  1  0  0  0  0
 14 15  1  0  0  0  0
 14 17  2  0  0  0  0
 15 16  1  0  0  0  0
 15 20  2  0  0  0  0
 16 18  2  0  0  0  0
 16 21  1  0  0  0  0
 17 19  1  0  0  0  0
 17 36  1  0  0  0  0
 20 37  1  0  0  0  0
 21 22  2  0  0  0  0
 21 39  1  0  0  0  0
 22 23  1  0  0  0  0
 22 40  1  0  0  0  0
 23 41  1  0  0  0  0
M  END
> <PUBCHEM_COMPOUND_CID>
49830279

> <PUBCHEM_COMPOUND_CANONICALIZED>
1

> <PUBCHEM_CACTVS_COMPLEXITY>
389

> <PUBCHEM_CACTVS_HBOND_ACCEPTOR>
4

> <PUBCHEM_CACTVS_HBOND_DONOR>
2

> <PUBCHEM_CACTVS_ROTATABLE_BOND>
3

> <PUBCHEM_CACTVS_SUBSKEYS>
AAADceB7gAAEAAAAAAAAAAAAAAAAAWAAAAA8WIAAAAAAAFgB/gAAHAIQAAAADCrBHyQ9sN7JkACgAzZnZACCgCmxB6AJ2aA4ZpiIKOLB29GEJAhokALIyCcQgIAOgAAAAAAAAAAAAAAAAAAAAAAAAAAAAA==

> <PUBCHEM_IUPAC_OPENEYE_NAME>
4-chloro-N-cyclohexyl-6-(1H-pyrrolo[2,3-b]pyridin-3-yl)pyrimidin-2-amine

> <PUBCHEM_IUPAC_CAS_NAME>
4-chloro-N-cyclohexyl-6-(1H-pyrrolo[2,3-b]pyridin-3-yl)-2-pyrimidinamine

> <PUBCHEM_IUPAC_NAME_MARKUP>
4-chloro-<I>N</I>-cyclohexyl-6-(1<I>H</I>-pyrrolo[2,3-b]pyridin-3-yl)pyrimidin-2-amine

> <PUBCHEM_IUPAC_NAME>
4-chloro-N-cyclohexyl-6-(1H-pyrrolo[2,3-b]pyridin-3-yl)pyrimidin-2-amine

> <PUBCHEM_IUPAC_SYSTEMATIC_NAME>
4-chloranyl-N-cyclohexyl-6-(1H-pyrrolo[2,3-b]pyridin-3-yl)pyrimidin-2-amine

> <PUBCHEM_IUPAC_TRADITIONAL_NAME>
[4-chloro-6-(1H-pyrrolo[2,3-b]pyridin-3-yl)pyrimidin-2-yl]-cyclohexyl-amine

> <PUBCHEM_IUPAC_INCHI>
InChI=1S/C17H18ClN5/c18-15-9-14(13-10-20-16-12(13)7-4-8-19-16)22-17(23-15)21-11-5-2-1-3-6-11/h4,7-11H,1-3,5-6H2,(H,19,20)(H,21,22,23)

> <PUBCHEM_IUPAC_INCHIKEY>
CLEGDJQQHUTCOW-UHFFFAOYSA-N

> <PUBCHEM_XLOGP3_AA>
4.3

> <PUBCHEM_EXACT_MASS>
327.1250733

> <PUBCHEM_MOLECULAR_FORMULA>
C17H18ClN5

> <PUBCHEM_MOLECULAR_WEIGHT>
327.8

> <PUBCHEM_SMILES>
C1CCC(CC1)NC2=NC(=CC(=N2)Cl)C3=CNC4=C3C=CC=N4

> <PUBCHEM_OPENEYE_CAN_SMILES>
C1CCC(CC1)NC2=NC(=CC(=N2)Cl)C3=CNC4=C3C=CC=N4

> <PUBCHEM_OPENEYE_ISO_SMILES>
C1CCC(CC1)NC2=NC(=CC(=N2)Cl)C3=CNC4=C3C=CC=N4

> <PUBCHEM_CACTVS_TPSA>
66.5

> <PUBCHEM_MONOISOTOPIC_WEIGHT>
327.1250733

> <PUBCHEM_TOTAL_CHARGE>
0

> <PUBCHEM_HEAVY_ATOM_COUNT>
23

> <PUBCHEM_ATOM_DEF_STEREO_COUNT>
0

> <PUBCHEM_ATOM_UDEF_STEREO_COUNT>
0

> <PUBCHEM_BOND_DEF_STEREO_COUNT>
0

> <PUBCHEM_BOND_UDEF_STEREO_COUNT>
0

> <PUBCHEM_ISOTOPIC_ATOM_COUNT>
0

> <PUBCHEM_COMPONENT_COUNT>
1

> <PUBCHEM_CACTVS_TAUTO_COUNT>
-1

> <PUBCHEM_COORDINATE_TYPE>
1
5
255

> <PUBCHEM_BONDANNOTATIONS>
14  17  8
15  16  8
15  20  8
16  18  8
16  21  8
17  19  8
21  22  8
22  23  8
3  13  8
3  14  8
4  13  8
4  19  8
5  18  8
5  20  8
6  18  8
6  23  8

$$$$
