10048045
  -OEChem-03202500322D

 55 59  0     0  0  0  0  0  0999 V2000
    4.2690    3.1160    0.0000 O   0  0  0  0  0  0  0  0  0  0  0  0
    9.0309   -1.5180    0.0000 O   0  0  0  0  0  0  0  0  0  0  0  0
    2.5369    3.1160    0.0000 N   0  0  0  0  0  0  0  0  0  0  0  0
    5.1350   -0.3840    0.0000 N   0  0  0  0  0  0  0  0  0  0  0  0
    6.0010   -2.8840    0.0000 N   0  0  0  0  0  0  0  0  0  0  0  0
    4.2690   -1.8840    0.0000 N   0  0  0  0  0  0  0  0  0  0  0  0
    5.1350   -3.3840    0.0000 N   0  0  0  0  0  0  0  0  0  0  0  0
    2.5369    4.1160    0.0000 C   0  0  0  0  0  0  0  0  0  0  0  0
    3.0369    4.9820    0.0000 C   0  0  0  0  0  0  0  0  0  0  0  0
    2.0369    4.9820    0.0000 C   0  0  0  0  0  0  0  0  0  0  0  0
    3.4030    2.6160    0.0000 C   0  0  0  0  0  0  0  0  0  0  0  0
    3.4030    1.6160    0.0000 C   0  0  0  0  0  0  0  0  0  0  0  0
    4.2690    1.1160    0.0000 C   0  0  0  0  0  0  0  0  0  0  0  0
    2.5369    1.1160    0.0000 C   0  0  0  0  0  0  0  0  0  0  0  0
    4.2690    0.1160    0.0000 C   0  0  0  0  0  0  0  0  0  0  0  0
    6.0010   -1.8840    0.0000 C   0  0  0  0  0  0  0  0  0  0  0  0
    3.4030   -0.3840    0.0000 C   0  0  0  0  0  0  0  0  0  0  0  0
    6.9473   -1.5792    0.0000 C   0  0  0  0  0  0  0  0  0  0  0  0
    2.5369    0.1160    0.0000 C   0  0  0  0  0  0  0  0  0  0  0  0
    5.1350   -1.3840    0.0000 C   0  0  0  0  0  0  0  0  0  0  0  0
    7.5309   -2.3840    0.0000 C   0  0  0  0  0  0  0  0  0  0  0  0
    6.9473   -3.1887    0.0000 C   0  0  0  0  0  0  0  0  0  0  0  0
    7.2579   -0.6287    0.0000 C   0  0  0  0  0  0  0  0  0  0  0  0
    3.4030   -1.3840    0.0000 C   0  0  0  0  0  0  0  0  0  0  0  0
    8.5309   -2.3840    0.0000 C   0  0  0  0  0  0  0  0  0  0  0  0
    9.0309   -3.2500    0.0000 C   0  0  0  0  0  0  0  0  0  0  0  0
    4.2690   -2.8840    0.0000 C   0  0  0  0  0  0  0  0  0  0  0  0
   10.0309   -3.2500    0.0000 C   0  0  0  0  0  0  0  0  0  0  0  0
    8.5309   -4.1160    0.0000 C   0  0  0  0  0  0  0  0  0  0  0  0
   10.5309   -4.1160    0.0000 C   0  0  0  0  0  0  0  0  0  0  0  0
    9.0309   -4.9820    0.0000 C   0  0  0  0  0  0  0  0  0  0  0  0
   10.0309   -4.9820    0.0000 C   0  0  0  0  0  0  0  0  0  0  0  0
    3.1358    3.9556    0.0000 H   0  0  0  0  0  0  0  0  0  0  0  0
    3.6196    4.7700    0.0000 H   0  0  0  0  0  0  0  0  0  0  0  0
    3.1446    5.5926    0.0000 H   0  0  0  0  0  0  0  0  0  0  0  0
    1.9293    5.5926    0.0000 H   0  0  0  0  0  0  0  0  0  0  0  0
    1.4543    4.7700    0.0000 H   0  0  0  0  0  0  0  0  0  0  0  0
    2.0000    2.8060    0.0000 H   0  0  0  0  0  0  0  0  0  0  0  0
    4.8059    1.4260    0.0000 H   0  0  0  0  0  0  0  0  0  0  0  0
    2.0000    1.4260    0.0000 H   0  0  0  0  0  0  0  0  0  0  0  0
    2.0000   -0.1940    0.0000 H   0  0  0  0  0  0  0  0  0  0  0  0
    5.6720   -0.0740    0.0000 H   0  0  0  0  0  0  0  0  0  0  0  0
    7.1399   -3.7780    0.0000 H   0  0  0  0  0  0  0  0  0  0  0  0
    7.8472   -0.8213    0.0000 H   0  0  0  0  0  0  0  0  0  0  0  0
    7.4505   -0.0394    0.0000 H   0  0  0  0  0  0  0  0  0  0  0  0
    6.6686   -0.4361    0.0000 H   0  0  0  0  0  0  0  0  0  0  0  0
    2.7830   -1.3840    0.0000 H   0  0  0  0  0  0  0  0  0  0  0  0
    3.4030   -2.0040    0.0000 H   0  0  0  0  0  0  0  0  0  0  0  0
    4.0230   -1.3840    0.0000 H   0  0  0  0  0  0  0  0  0  0  0  0
    3.7320   -3.1940    0.0000 H   0  0  0  0  0  0  0  0  0  0  0  0
   10.3409   -2.7131    0.0000 H   0  0  0  0  0  0  0  0  0  0  0  0
    7.9109   -4.1160    0.0000 H   0  0  0  0  0  0  0  0  0  0  0  0
   11.1509   -4.1160    0.0000 H   0  0  0  0  0  0  0  0  0  0  0  0
    8.7209   -5.5190    0.0000 H   0  0  0  0  0  0  0  0  0  0  0  0
   10.3409   -5.5190    0.0000 H   0  0  0  0  0  0  0  0  0  0  0  0
  1 11  2  0  0  0  0
  2 25  2  0  0  0  0
  3  8  1  0  0  0  0
  3 11  1  0  0  0  0
  3 38  1  0  0  0  0
  4 15  1  0  0  0  0
  4 20  1  0  0  0  0
  4 42  1  0  0  0  0
  5  7  1  0  0  0  0
  5 16  1  0  0  0  0
  5 22  1  0  0  0  0
  6 20  2  0  0  0  0
  6 27  1  0  0  0  0
  7 27  2  0  0  0  0
  8  9  1  0  0  0  0
  8 10  1  0  0  0  0
  8 33  1  0  0  0  0
  9 10  1  0  0  0  0
  9 34  1  0  0  0  0
  9 35  1  0  0  0  0
 10 36  1  0  0  0  0
 10 37  1  0  0  0  0
 11 12  1  0  0  0  0
 12 13  2  0  0  0  0
 12 14  1  0  0  0  0
 13 15  1  0  0  0  0
 13 39  1  0  0  0  0
 14 19  2  0  0  0  0
 14 40  1  0  0  0  0
 15 17  2  0  0  0  0
 16 18  2  0  0  0  0
 16 20  1  0  0  0  0
 17 19  1  0  0  0  0
 17 24  1  0  0  0  0
 18 21  1  0  0  0  0
 18 23  1  0  0  0  0
 19 41  1  0  0  0  0
 21 22  2  0  0  0  0
 21 25  1  0  0  0  0
 22 43  1  0  0  0  0
 23 44  1  0  0  0  0
 23 45  1  0  0  0  0
 23 46  1  0  0  0  0
 24 47  1  0  0  0  0
 24 48  1  0  0  0  0
 24 49  1  0  0  0  0
 25 26  1  0  0  0  0
 26 28  2  0  0  0  0
 26 29  1  0  0  0  0
 27 50  1  0  0  0  0
 28 30  1  0  0  0  0
 28 51  1  0  0  0  0
 29 31  2  0  0  0  0
 29 52  1  0  0  0  0
 30 32  2  0  0  0  0
 30 53  1  0  0  0  0
 31 32  1  0  0  0  0
 31 54  1  0  0  0  0
 32 55  1  0  0  0  0
M  END
> <PUBCHEM_COMPOUND_CID>
10048045

> <PUBCHEM_COMPOUND_CANONICALIZED>
1

> <PUBCHEM_CACTVS_COMPLEXITY>
692

> <PUBCHEM_CACTVS_HBOND_ACCEPTOR>
5

> <PUBCHEM_CACTVS_HBOND_DONOR>
2

> <PUBCHEM_CACTVS_ROTATABLE_BOND>
6

> <PUBCHEM_CACTVS_SUBSKEYS>
AAADceB7sAAAAAAAAAAAAAAAGAAAAWAAAAA8YIAAAAAAAFgB9AAAHgAYAAAADCzBngQ/8LbIEACqA7d3dACShC81kqAd2KEodNiIaHrAnZGUoYhongLIyeccicCOwAAAQAACAACAAACAAAQAAAAAAAAAAA==

> <PUBCHEM_IUPAC_OPENEYE_NAME>
3-[(6-benzoyl-5-methyl-pyrrolo[2,1-f][1,2,4]triazin-4-yl)amino]-N-cyclopropyl-4-methyl-benzamide

> <PUBCHEM_IUPAC_CAS_NAME>
3-[(6-benzoyl-5-methyl-4-pyrrolo[2,1-f][1,2,4]triazinyl)amino]-N-cyclopropyl-4-methylbenzamide

> <PUBCHEM_IUPAC_NAME_MARKUP>
3-[(6-benzoyl-5-methylpyrrolo[2,1-f][1,2,4]triazin-4-yl)amino]-<I>N</I>-cyclopropyl-4-methylbenzamide

> <PUBCHEM_IUPAC_NAME>
3-[(6-benzoyl-5-methylpyrrolo[2,1-f][1,2,4]triazin-4-yl)amino]-N-cyclopropyl-4-methylbenzamide

> <PUBCHEM_IUPAC_SYSTEMATIC_NAME>
N-cyclopropyl-4-methyl-3-[[5-methyl-6-(phenylcarbonyl)pyrrolo[2,1-f][1,2,4]triazin-4-yl]amino]benzamide

> <PUBCHEM_IUPAC_TRADITIONAL_NAME>
3-[(6-benzoyl-5-methyl-pyrrolo[2,1-f][1,2,4]triazin-4-yl)amino]-N-cyclopropyl-4-methyl-benzamide

> <PUBCHEM_IUPAC_INCHI>
InChI=1S/C25H23N5O2/c1-15-8-9-18(25(32)28-19-10-11-19)12-21(15)29-24-22-16(2)20(13-30(22)27-14-26-24)23(31)17-6-4-3-5-7-17/h3-9,12-14,19H,10-11H2,1-2H3,(H,28,32)(H,26,27,29)

> <PUBCHEM_IUPAC_INCHIKEY>
CQPNJQRTSADQCI-UHFFFAOYSA-N

> <PUBCHEM_XLOGP3_AA>
4.2

> <PUBCHEM_EXACT_MASS>
425.18517499

> <PUBCHEM_MOLECULAR_FORMULA>
C25H23N5O2

> <PUBCHEM_MOLECULAR_WEIGHT>
425.5

> <PUBCHEM_SMILES>
CC1=C(C=C(C=C1)C(=O)NC2CC2)NC3=NC=NN4C3=C(C(=C4)C(=O)C5=CC=CC=C5)C

> <PUBCHEM_OPENEYE_CAN_SMILES>
CC1=C(C=C(C=C1)C(=O)NC2CC2)NC3=NC=NN4C3=C(C(=C4)C(=O)C5=CC=CC=C5)C

> <PUBCHEM_OPENEYE_ISO_SMILES>
CC1=C(C=C(C=C1)C(=O)NC2CC2)NC3=NC=NN4C3=C(C(=C4)C(=O)C5=CC=CC=C5)C

> <PUBCHEM_CACTVS_TPSA>
88.4

> <PUBCHEM_MONOISOTOPIC_WEIGHT>
425.18517499

> <PUBCHEM_TOTAL_CHARGE>
0

> <PUBCHEM_HEAVY_ATOM_COUNT>
32

> <PUBCHEM_ATOM_DEF_STEREO_COUNT>
0

> <PUBCHEM_ATOM_UDEF_STEREO_COUNT>
0

> <PUBCHEM_BOND_DEF_STEREO_COUNT>
0

> <PUBCHEM_BOND_UDEF_STEREO_COUNT>
0

> <PUBCHEM_ISOTOPIC_ATOM_COUNT>
0

> <PUBCHEM_COMPONENT_COUNT>
1

> <PUBCHEM_CACTVS_TAUTO_COUNT>
-1

> <PUBCHEM_COORDINATE_TYPE>
1
5
255

> <PUBCHEM_BONDANNOTATIONS>
12  13  8
12  14  8
13  15  8
14  19  8
15  17  8
16  18  8
16  20  8
17  19  8
18  21  8
21  22  8
26  28  8
26  29  8
28  30  8
29  31  8
30  32  8
31  32  8
5  16  8
5  22  8
5  7  8
6  20  8
6  27  8
7  27  8

$$$$
