49830383
  -OEChem-03202504052D

 25 27  0     0  0  0  0  0  0999 V2000
    8.8600   -0.5530    0.0000 O   0  0  0  0  0  0  0  0  0  0  0  0
    7.2764    0.2518    0.0000 N   0  0  0  0  0  0  0  0  0  0  0  0
    7.2764   -1.3577    0.0000 N   0  0  0  0  0  0  0  0  0  0  0  0
    5.4641   -1.5530    0.0000 N   0  0  0  0  0  0  0  0  0  0  0  0
    6.3301   -0.0530    0.0000 C   0  0  0  0  0  0  0  0  0  0  0  0
    4.5981   -0.0530    0.0000 C   0  0  0  0  0  0  0  0  0  0  0  0
    6.3301   -1.0530    0.0000 C   0  0  0  0  0  0  0  0  0  0  0  0
    5.4641    0.4470    0.0000 C   0  0  0  0  0  0  0  0  0  0  0  0
    3.7320    0.4470    0.0000 C   0  0  0  0  0  0  0  0  0  0  0  0
    4.5981   -1.0530    0.0000 C   0  0  0  0  0  0  0  0  0  0  0  0
    7.8600   -0.5530    0.0000 C   0  0  0  0  0  0  0  0  0  0  0  0
    2.8660   -0.0530    0.0000 C   0  0  0  0  0  0  0  0  0  0  0  0
    3.7320    1.4470    0.0000 C   0  0  0  0  0  0  0  0  0  0  0  0
    2.0000    0.4470    0.0000 C   0  0  0  0  0  0  0  0  0  0  0  0
    2.8660    1.9470    0.0000 C   0  0  0  0  0  0  0  0  0  0  0  0
    2.0000    1.4470    0.0000 C   0  0  0  0  0  0  0  0  0  0  0  0
    5.4641    1.0670    0.0000 H   0  0  0  0  0  0  0  0  0  0  0  0
    7.4690    0.8411    0.0000 H   0  0  0  0  0  0  0  0  0  0  0  0
    7.4690   -1.9470    0.0000 H   0  0  0  0  0  0  0  0  0  0  0  0
    4.0611   -1.3630    0.0000 H   0  0  0  0  0  0  0  0  0  0  0  0
    2.8660   -0.6730    0.0000 H   0  0  0  0  0  0  0  0  0  0  0  0
    4.2690    1.7570    0.0000 H   0  0  0  0  0  0  0  0  0  0  0  0
    1.4631    0.1370    0.0000 H   0  0  0  0  0  0  0  0  0  0  0  0
    2.8660    2.5670    0.0000 H   0  0  0  0  0  0  0  0  0  0  0  0
    1.4631    1.7570    0.0000 H   0  0  0  0  0  0  0  0  0  0  0  0
  1 11  2  0  0  0  0
  2  5  1  0  0  0  0
  2 11  1  0  0  0  0
  2 18  1  0  0  0  0
  3  7  1  0  0  0  0
  3 11  1  0  0  0  0
  3 19  1  0  0  0  0
  4  7  1  0  0  0  0
  4 10  2  0  0  0  0
  5  7  2  0  0  0  0
  5  8  1  0  0  0  0
  6  8  2  0  0  0  0
  6  9  1  0  0  0  0
  6 10  1  0  0  0  0
  8 17  1  0  0  0  0
  9 12  2  0  0  0  0
  9 13  1  0  0  0  0
 10 20  1  0  0  0  0
 12 14  1  0  0  0  0
 12 21  1  0  0  0  0
 13 15  2  0  0  0  0
 13 22  1  0  0  0  0
 14 16  2  0  0  0  0
 14 23  1  0  0  0  0
 15 16  1  0  0  0  0
 15 24  1  0  0  0  0
 16 25  1  0  0  0  0
M  END
> <PUBCHEM_COMPOUND_CID>
49830383

> <PUBCHEM_COMPOUND_CANONICALIZED>
1

> <PUBCHEM_CACTVS_COMPLEXITY>
275

> <PUBCHEM_CACTVS_HBOND_ACCEPTOR>
2

> <PUBCHEM_CACTVS_HBOND_DONOR>
2

> <PUBCHEM_CACTVS_ROTATABLE_BOND>
1

> <PUBCHEM_CACTVS_SUBSKEYS>
AAADccBzIAAAAAAAAAAAAAAAAAAAAWAAAAA8QAAAAAAAAFgBwAAAHgAQAAAADAjBGgQ98JLIEACoAjZndACCgCkxEiAJ2CAodJiIYOLAkZGUIAholQLIyCcQgMAOgAAAAAAAAAAAAAAAAAAAAAAAAAAAAA==

> <PUBCHEM_IUPAC_OPENEYE_NAME>
6-phenyl-1,3-dihydroimidazo[4,5-b]pyridin-2-one

> <PUBCHEM_IUPAC_CAS_NAME>
6-phenyl-1,3-dihydroimidazo[4,5-b]pyridin-2-one

> <PUBCHEM_IUPAC_NAME_MARKUP>
6-phenyl-1,3-dihydroimidazo[4,5-b]pyridin-2-one

> <PUBCHEM_IUPAC_NAME>
6-phenyl-1,3-dihydroimidazo[4,5-b]pyridin-2-one

> <PUBCHEM_IUPAC_SYSTEMATIC_NAME>
6-phenyl-1,3-dihydroimidazo[4,5-b]pyridin-2-one

> <PUBCHEM_IUPAC_TRADITIONAL_NAME>
6-phenyl-1,3-dihydroimidazo[4,5-b]pyridin-2-one

> <PUBCHEM_IUPAC_INCHI>
InChI=1S/C12H9N3O/c16-12-14-10-6-9(7-13-11(10)15-12)8-4-2-1-3-5-8/h1-7H,(H2,13,14,15,16)

> <PUBCHEM_IUPAC_INCHIKEY>
PPCNMZPSQZFFGM-UHFFFAOYSA-N

> <PUBCHEM_XLOGP3_AA>
1.5

> <PUBCHEM_EXACT_MASS>
211.074561919

> <PUBCHEM_MOLECULAR_FORMULA>
C12H9N3O

> <PUBCHEM_MOLECULAR_WEIGHT>
211.22

> <PUBCHEM_SMILES>
C1=CC=C(C=C1)C2=CC3=C(NC(=O)N3)N=C2

> <PUBCHEM_OPENEYE_CAN_SMILES>
C1=CC=C(C=C1)C2=CC3=C(NC(=O)N3)N=C2

> <PUBCHEM_OPENEYE_ISO_SMILES>
C1=CC=C(C=C1)C2=CC3=C(NC(=O)N3)N=C2

> <PUBCHEM_CACTVS_TPSA>
54

> <PUBCHEM_MONOISOTOPIC_WEIGHT>
211.074561919

> <PUBCHEM_TOTAL_CHARGE>
0

> <PUBCHEM_HEAVY_ATOM_COUNT>
16

> <PUBCHEM_ATOM_DEF_STEREO_COUNT>
0

> <PUBCHEM_ATOM_UDEF_STEREO_COUNT>
0

> <PUBCHEM_BOND_DEF_STEREO_COUNT>
0

> <PUBCHEM_BOND_UDEF_STEREO_COUNT>
0

> <PUBCHEM_ISOTOPIC_ATOM_COUNT>
0

> <PUBCHEM_COMPONENT_COUNT>
1

> <PUBCHEM_CACTVS_TAUTO_COUNT>
-1

> <PUBCHEM_COORDINATE_TYPE>
1
5
255

> <PUBCHEM_BONDANNOTATIONS>
12  14  8
13  15  8
14  16  8
15  16  8
2  11  8
2  5  8
3  11  8
3  7  8
4  10  8
4  7  8
5  7  8
5  8  8
6  10  8
6  8  8
9  12  8
9  13  8

$$$$
