44460583
  -OEChem-03202507282D

 62 69  0     1  0  0  0  0  0999 V2000
    7.5253    1.8528    0.0000 O   0  0  0  0  0  0  0  0  0  0  0  0
    9.3271   -1.8890    0.0000 O   0  0  0  0  0  0  0  0  0  0  0  0
    2.2501    0.1536    0.0000 O   0  0  0  0  0  0  0  0  0  0  0  0
    3.2897    3.5307    0.0000 O   0  0  0  0  0  0  0  0  0  0  0  0
    6.9273   -1.1118    0.0000 N   0  0  0  0  0  0  0  0  0  0  0  0
    6.2433    0.7676    0.0000 N   0  0  0  0  0  0  0  0  0  0  0  0
   11.0179   -0.5199    0.0000 N   0  0  0  0  0  0  0  0  0  0  0  0
    2.5826   -1.6289    0.0000 N   0  0  0  0  0  0  0  0  0  0  0  0
    8.0031   -0.0957    0.0000 C   0  0  1  0  0  0  0  0  0  0  0  0
    9.2748   -0.8904    0.0000 C   0  0  2  0  0  0  0  0  0  0  0  0
    8.2619    0.8702    0.0000 C   0  0  3  0  0  0  0  0  0  0  0  0
   10.0519   -0.2610    0.0000 C   0  0  2  0  0  0  0  0  0  0  0  0
    9.6936    0.6725    0.0000 C   0  0  0  0  0  0  0  0  0  0  0  0
    5.9425   -0.9381    0.0000 C   0  0  0  0  0  0  0  0  0  0  0  0
    5.6005    0.0016    0.0000 C   0  0  0  0  0  0  0  0  0  0  0  0
    5.2853   -1.7463    0.0000 C   0  0  0  0  0  0  0  0  0  0  0  0
    4.5776    0.1982    0.0000 C   0  0  0  0  0  0  0  0  0  0  0  0
    6.9003   -2.1052    0.0000 C   0  0  0  0  0  0  0  0  0  0  0  0
    7.7443   -1.0616    0.0000 C   0  0  0  0  0  0  0  0  0  0  0  0
    5.5840    1.5113    0.0000 C   0  0  0  0  0  0  0  0  0  0  0  0
    5.9733   -2.4634    0.0000 C   0  0  0  0  0  0  0  0  0  0  0  0
    4.2582   -1.5733    0.0000 C   0  0  0  0  0  0  0  0  0  0  0  0
    3.9019   -0.5945    0.0000 C   0  0  0  0  0  0  0  0  0  0  0  0
    4.6436    1.1899    0.0000 C   0  0  0  0  0  0  0  0  0  0  0  0
    3.4406   -2.2087    0.0000 C   0  0  0  0  0  0  0  0  0  0  0  0
    7.7162   -2.7424    0.0000 C   0  0  0  0  0  0  0  0  0  0  0  0
    2.8672   -0.6333    0.0000 C   0  0  0  0  0  0  0  0  0  0  0  0
    5.7995    2.5238    0.0000 C   0  0  0  0  0  0  0  0  0  0  0  0
    5.7979   -3.4837    0.0000 C   0  0  0  0  0  0  0  0  0  0  0  0
    3.8535    1.8587    0.0000 C   0  0  0  0  0  0  0  0  0  0  0  0
   11.7250    0.1872    0.0000 C   0  0  0  0  0  0  0  0  0  0  0  0
   10.2181   -2.3430    0.0000 C   0  0  0  0  0  0  0  0  0  0  0  0
    7.5644   -3.7664    0.0000 C   0  0  0  0  0  0  0  0  0  0  0  0
    6.5988   -4.1395    0.0000 C   0  0  0  0  0  0  0  0  0  0  0  0
    5.0250    3.2107    0.0000 C   0  0  0  0  0  0  0  0  0  0  0  0
    4.0454    2.8759    0.0000 C   0  0  0  0  0  0  0  0  0  0  0  0
    9.8412   -1.1425    0.0000 H   0  0  0  0  0  0  0  0  0  0  0  0
    8.2351    0.2508    0.0000 H   0  0  0  0  0  0  0  0  0  0  0  0
   10.4668    0.1997    0.0000 H   0  0  0  0  0  0  0  0  0  0  0  0
   10.3014    0.7949    0.0000 H   0  0  0  0  0  0  0  0  0  0  0  0
    9.6745    1.2922    0.0000 H   0  0  0  0  0  0  0  0  0  0  0  0
    7.1454   -0.9012    0.0000 H   0  0  0  0  0  0  0  0  0  0  0  0
    7.5838   -1.6605    0.0000 H   0  0  0  0  0  0  0  0  0  0  0  0
    8.3432   -1.2221    0.0000 H   0  0  0  0  0  0  0  0  0  0  0  0
   11.1783   -1.1187    0.0000 H   0  0  0  0  0  0  0  0  0  0  0  0
    3.0413   -2.6831    0.0000 H   0  0  0  0  0  0  0  0  0  0  0  0
    3.8703   -2.6556    0.0000 H   0  0  0  0  0  0  0  0  0  0  0  0
    8.2919   -2.5122    0.0000 H   0  0  0  0  0  0  0  0  0  0  0  0
    6.3884    2.7176    0.0000 H   0  0  0  0  0  0  0  0  0  0  0  0
    5.2171   -3.7004    0.0000 H   0  0  0  0  0  0  0  0  0  0  0  0
    3.2692    1.6514    0.0000 H   0  0  0  0  0  0  0  0  0  0  0  0
    2.0000   -1.8410    0.0000 H   0  0  0  0  0  0  0  0  0  0  0  0
   12.1634   -0.2512    0.0000 H   0  0  0  0  0  0  0  0  0  0  0  0
   12.1634    0.6257    0.0000 H   0  0  0  0  0  0  0  0  0  0  0  0
   11.2866    0.6257    0.0000 H   0  0  0  0  0  0  0  0  0  0  0  0
    9.9366   -2.8954    0.0000 H   0  0  0  0  0  0  0  0  0  0  0  0
   10.7705   -2.6245    0.0000 H   0  0  0  0  0  0  0  0  0  0  0  0
   10.4996   -1.7906    0.0000 H   0  0  0  0  0  0  0  0  0  0  0  0
    8.0486   -4.1536    0.0000 H   0  0  0  0  0  0  0  0  0  0  0  0
    6.5009   -4.7517    0.0000 H   0  0  0  0  0  0  0  0  0  0  0  0
    5.1470    3.8186    0.0000 H   0  0  0  0  0  0  0  0  0  0  0  0
    3.4070    4.1395    0.0000 H   0  0  0  0  0  0  0  0  0  0  0  0
  1  9  1  0  0  0  0
  1 11  1  0  0  0  0
 10  2  1  6  0  0  0
  2 32  1  0  0  0  0
  3 27  2  0  0  0  0
  4 36  1  0  0  0  0
  4 62  1  0  0  0  0
  5  9  1  0  0  0  0
  5 14  1  0  0  0  0
  5 18  1  0  0  0  0
  6 11  1  0  0  0  0
  6 15  1  0  0  0  0
  6 20  1  0  0  0  0
 12  7  1  6  0  0  0
  7 31  1  0  0  0  0
  7 45  1  0  0  0  0
  8 25  1  0  0  0  0
  8 27  1  0  0  0  0
  8 52  1  0  0  0  0
  9 10  1  0  0  0  0
  9 19  1  1  0  0  0
 10 12  1  0  0  0  0
 10 37  1  0  0  0  0
 11 13  1  0  0  0  0
 11 38  1  0  0  0  0
 12 13  1  0  0  0  0
 12 39  1  0  0  0  0
 13 40  1  0  0  0  0
 13 41  1  0  0  0  0
 14 15  2  0  0  0  0
 14 16  1  0  0  0  0
 15 17  1  0  0  0  0
 16 21  1  0  0  0  0
 16 22  2  0  0  0  0
 17 23  2  0  0  0  0
 17 24  1  0  0  0  0
 18 21  1  0  0  0  0
 18 26  2  0  0  0  0
 19 42  1  0  0  0  0
 19 43  1  0  0  0  0
 19 44  1  0  0  0  0
 20 24  2  0  0  0  0
 20 28  1  0  0  0  0
 21 29  2  0  0  0  0
 22 23  1  0  0  0  0
 22 25  1  0  0  0  0
 23 27  1  0  0  0  0
 24 30  1  0  0  0  0
 25 46  1  0  0  0  0
 25 47  1  0  0  0  0
 26 33  1  0  0  0  0
 26 48  1  0  0  0  0
 28 35  2  0  0  0  0
 28 49  1  0  0  0  0
 29 34  1  0  0  0  0
 29 50  1  0  0  0  0
 30 36  2  0  0  0  0
 30 51  1  0  0  0  0
 31 53  1  0  0  0  0
 31 54  1  0  0  0  0
 31 55  1  0  0  0  0
 32 56  1  0  0  0  0
 32 57  1  0  0  0  0
 32 58  1  0  0  0  0
 33 34  2  0  0  0  0
 33 59  1  0  0  0  0
 34 60  1  0  0  0  0
 35 36  1  0  0  0  0
 35 61  1  0  0  0  0
M  END
> <PUBCHEM_COMPOUND_CID>
44460583

> <PUBCHEM_COMPOUND_CANONICALIZED>
1

> <PUBCHEM_CACTVS_COMPLEXITY>
935

> <PUBCHEM_CACTVS_HBOND_ACCEPTOR>
5

> <PUBCHEM_CACTVS_HBOND_DONOR>
3

> <PUBCHEM_CACTVS_ROTATABLE_BOND>
2

> <PUBCHEM_CACTVS_SUBSKEYS>
AAADceB7uAAAAAAAAAAAAAAAAAAAAWLFgAA0YMEABYAAAFix/gAAHgAQCAAADDzhngYyxvPMFgCoAyVyVACCgCQlMiAI2KE+fNgLZvLC1ZOfcQhm1hHa2Qf82fOeyEADQAASACCQgAaAACQAQAAAAAAAAA==

> <PUBCHEM_IUPAC_OPENEYE_NAME>
(2R,3S,4S)-11-hydroxy-3-methoxy-2-methyl-4-(methylamino)-29-oxa-1,7,17-triazaoctacyclo[12.12.2.12,6.07,28.08,13.015,19.020,27.021,26]nonacosa-8(13),9,11,14,19,21,23,25,27-nonaen-16-one

> <PUBCHEM_IUPAC_CAS_NAME>
(2R,3S,4S)-11-hydroxy-3-methoxy-2-methyl-4-(methylamino)-29-oxa-1,7,17-triazaoctacyclo[12.12.2.12,6.07,28.08,13.015,19.020,27.021,26]nonacosa-8(13),9,11,14,19,21,23,25,27-nonaen-16-one

> <PUBCHEM_IUPAC_NAME_MARKUP>
(2<I>R</I>,3<I>S</I>,4<I>S</I>)-11-hydroxy-3-methoxy-2-methyl-4-(methylamino)-29-oxa-1,7,17-triazaoctacyclo[12.12.2.1<SUP>2,6</SUP>.0<SUP>7,28</SUP>.0<SUP>8,13</SUP>.0<SUP>15,19</SUP>.0<SUP>20,27</SUP>.0<SUP>21,26</SUP>]nonacosa-8(13),9,11,14,19,21,23,25,27-nonaen-16-one

> <PUBCHEM_IUPAC_NAME>
(2R,3S,4S)-11-hydroxy-3-methoxy-2-methyl-4-(methylamino)-29-oxa-1,7,17-triazaoctacyclo[12.12.2.12,6.07,28.08,13.015,19.020,27.021,26]nonacosa-8(13),9,11,14,19,21,23,25,27-nonaen-16-one

> <PUBCHEM_IUPAC_SYSTEMATIC_NAME>
(2R,3S,4S)-3-methoxy-2-methyl-4-(methylamino)-11-oxidanyl-29-oxa-1,7,17-triazaoctacyclo[12.12.2.12,6.07,28.08,13.015,19.020,27.021,26]nonacosa-8(13),9,11,14,19,21,23,25,27-nonaen-16-one

> <PUBCHEM_IUPAC_TRADITIONAL_NAME>
(2R,3S,4S)-11-hydroxy-3-methoxy-2-methyl-4-(methylamino)-29-oxa-1,7,17-triazaoctacyclo[12.12.2.12,6.07,28.08,13.015,19.020,27.021,26]nonacosa-8(13),9,11,14,19,21,23,25,27-nonaen-16-one

> <PUBCHEM_IUPAC_INCHI>
InChI=1S/C28H26N4O4/c1-28-26(35-3)17(29-2)11-20(36-28)31-18-9-8-13(33)10-15(18)22-23-16(12-30-27(23)34)21-14-6-4-5-7-19(14)32(28)25(21)24(22)31/h4-10,17,20,26,29,33H,11-12H2,1-3H3,(H,30,34)/t17-,20?,26-,28+/m0/s1

> <PUBCHEM_IUPAC_INCHIKEY>
JZLFYMHIISZQCZ-KREMMBLBSA-N

> <PUBCHEM_XLOGP3_AA>
2.9

> <PUBCHEM_EXACT_MASS>
482.19540532

> <PUBCHEM_MOLECULAR_FORMULA>
C28H26N4O4

> <PUBCHEM_MOLECULAR_WEIGHT>
482.5

> <PUBCHEM_SMILES>
C[C@]12[C@H]([C@H](CC(O1)N3C4=C(C=C(C=C4)O)C5=C6C(=C7C8=CC=CC=C8N2C7=C53)CNC6=O)NC)OC

> <PUBCHEM_OPENEYE_CAN_SMILES>
CC12C(C(CC(O1)N3C4=C(C=C(C=C4)O)C5=C6C(=C7C8=CC=CC=C8N2C7=C53)CNC6=O)NC)OC

> <PUBCHEM_OPENEYE_ISO_SMILES>
C[C@]12[C@H]([C@H](CC(O1)N3C4=C(C=C(C=C4)O)C5=C6C(=C7C8=CC=CC=C8N2C7=C53)CNC6=O)NC)OC

> <PUBCHEM_CACTVS_TPSA>
89.7

> <PUBCHEM_MONOISOTOPIC_WEIGHT>
482.19540532

> <PUBCHEM_TOTAL_CHARGE>
0

> <PUBCHEM_HEAVY_ATOM_COUNT>
36

> <PUBCHEM_ATOM_DEF_STEREO_COUNT>
3

> <PUBCHEM_ATOM_UDEF_STEREO_COUNT>
1

> <PUBCHEM_BOND_DEF_STEREO_COUNT>
0

> <PUBCHEM_BOND_UDEF_STEREO_COUNT>
0

> <PUBCHEM_ISOTOPIC_ATOM_COUNT>
0

> <PUBCHEM_COMPONENT_COUNT>
1

> <PUBCHEM_CACTVS_TAUTO_COUNT>
-1

> <PUBCHEM_COORDINATE_TYPE>
1
5
255

> <PUBCHEM_BONDANNOTATIONS>
11  13  3
14  15  8
14  16  8
15  17  8
16  21  8
16  22  8
17  23  8
17  24  8
18  21  8
18  26  8
10  2  6
20  24  8
20  28  8
21  29  8
22  23  8
24  30  8
26  33  8
28  35  8
29  34  8
30  36  8
33  34  8
35  36  8
5  14  8
5  18  8
6  15  8
6  20  8
12  7  6
9  19  5

$$$$
