15745967
  -OEChem-03202504242D

 26 28  0     0  0  0  0  0  0999 V2000
    7.5870   -0.0547    0.0000 Cl  0  0  0  0  0  0  0  0  0  0  0  0
    7.2764   -2.6147    0.0000 S   0  0  0  0  0  0  0  0  0  0  0  0
    2.0000    2.1900    0.0000 O   0  0  0  0  0  0  0  0  0  0  0  0
    5.4641    0.1900    0.0000 N   0  0  0  0  0  0  0  0  0  0  0  0
    4.5981   -1.3100    0.0000 N   0  0  0  0  0  0  0  0  0  0  0  0
    5.4641   -2.8100    0.0000 N   0  0  0  0  0  0  0  0  0  0  0  0
    6.3301   -1.3100    0.0000 C   0  0  0  0  0  0  0  0  0  0  0  0
    5.4641   -0.8100    0.0000 C   0  0  0  0  0  0  0  0  0  0  0  0
    6.3301   -2.3100    0.0000 C   0  0  0  0  0  0  0  0  0  0  0  0
    4.5981    0.6900    0.0000 C   0  0  0  0  0  0  0  0  0  0  0  0
    7.2764   -1.0053    0.0000 C   0  0  0  0  0  0  0  0  0  0  0  0
    3.7320    0.1900    0.0000 C   0  0  0  0  0  0  0  0  0  0  0  0
    4.5981    1.6900    0.0000 C   0  0  0  0  0  0  0  0  0  0  0  0
    7.8600   -1.8100    0.0000 C   0  0  0  0  0  0  0  0  0  0  0  0
    2.8660    0.6900    0.0000 C   0  0  0  0  0  0  0  0  0  0  0  0
    3.7320    2.1900    0.0000 C   0  0  0  0  0  0  0  0  0  0  0  0
    4.5981   -2.3100    0.0000 C   0  0  0  0  0  0  0  0  0  0  0  0
    2.8660    1.6900    0.0000 C   0  0  0  0  0  0  0  0  0  0  0  0
    6.0010    0.5000    0.0000 H   0  0  0  0  0  0  0  0  0  0  0  0
    3.7320   -0.4300    0.0000 H   0  0  0  0  0  0  0  0  0  0  0  0
    5.1350    2.0000    0.0000 H   0  0  0  0  0  0  0  0  0  0  0  0
    8.4800   -1.8100    0.0000 H   0  0  0  0  0  0  0  0  0  0  0  0
    2.3291    0.3800    0.0000 H   0  0  0  0  0  0  0  0  0  0  0  0
    3.7320    2.8100    0.0000 H   0  0  0  0  0  0  0  0  0  0  0  0
    4.0611   -2.6200    0.0000 H   0  0  0  0  0  0  0  0  0  0  0  0
    2.0000    2.8100    0.0000 H   0  0  0  0  0  0  0  0  0  0  0  0
  1 11  1  0  0  0  0
  2  9  1  0  0  0  0
  2 14  1  0  0  0  0
  3 18  1  0  0  0  0
  3 26  1  0  0  0  0
  4  8  1  0  0  0  0
  4 10  1  0  0  0  0
  4 19  1  0  0  0  0
  5  8  1  0  0  0  0
  5 17  2  0  0  0  0
  6  9  2  0  0  0  0
  6 17  1  0  0  0  0
  7  8  2  0  0  0  0
  7  9  1  0  0  0  0
  7 11  1  0  0  0  0
 10 12  2  0  0  0  0
 10 13  1  0  0  0  0
 11 14  2  0  0  0  0
 12 15  1  0  0  0  0
 12 20  1  0  0  0  0
 13 16  2  0  0  0  0
 13 21  1  0  0  0  0
 14 22  1  0  0  0  0
 15 18  2  0  0  0  0
 15 23  1  0  0  0  0
 16 18  1  0  0  0  0
 16 24  1  0  0  0  0
 17 25  1  0  0  0  0
M  END
> <PUBCHEM_COMPOUND_CID>
15745967

> <PUBCHEM_COMPOUND_CANONICALIZED>
1

> <PUBCHEM_CACTVS_COMPLEXITY>
288

> <PUBCHEM_CACTVS_HBOND_ACCEPTOR>
5

> <PUBCHEM_CACTVS_HBOND_DONOR>
2

> <PUBCHEM_CACTVS_ROTATABLE_BOND>
2

> <PUBCHEM_CACTVS_SUBSKEYS>
AAADccBzIABEAAAAAAAAAAAAAAAAASAAAAA8QAAAAAAAAFgB/AAAHgYQCAAADA6F2iS199bIEgikAiZjZACD0KlxL7gJ2DAubpiILmLi2dOEdAxs0BPo2CewQAAIAEAAAAAAAAAAgAAAAAAAAAAAAAAAAA==

> <PUBCHEM_IUPAC_OPENEYE_NAME>
4-[(5-chlorothieno[2,3-d]pyrimidin-4-yl)amino]phenol

> <PUBCHEM_IUPAC_CAS_NAME>
4-[(5-chloro-4-thieno[2,3-d]pyrimidinyl)amino]phenol

> <PUBCHEM_IUPAC_NAME_MARKUP>
4-[(5-chlorothieno[2,3-d]pyrimidin-4-yl)amino]phenol

> <PUBCHEM_IUPAC_NAME>
4-[(5-chlorothieno[2,3-d]pyrimidin-4-yl)amino]phenol

> <PUBCHEM_IUPAC_SYSTEMATIC_NAME>
4-[(5-chloranylthieno[2,3-d]pyrimidin-4-yl)amino]phenol

> <PUBCHEM_IUPAC_TRADITIONAL_NAME>
4-[(5-chlorothieno[2,3-d]pyrimidin-4-yl)amino]phenol

> <PUBCHEM_IUPAC_INCHI>
InChI=1S/C12H8ClN3OS/c13-9-5-18-12-10(9)11(14-6-15-12)16-7-1-3-8(17)4-2-7/h1-6,17H,(H,14,15,16)

> <PUBCHEM_IUPAC_INCHIKEY>
FFFPNQJGIVIKKA-UHFFFAOYSA-N

> <PUBCHEM_XLOGP3_AA>
3.7

> <PUBCHEM_EXACT_MASS>
277.0076608

> <PUBCHEM_MOLECULAR_FORMULA>
C12H8ClN3OS

> <PUBCHEM_MOLECULAR_WEIGHT>
277.73

> <PUBCHEM_SMILES>
C1=CC(=CC=C1NC2=C3C(=CSC3=NC=N2)Cl)O

> <PUBCHEM_OPENEYE_CAN_SMILES>
C1=CC(=CC=C1NC2=C3C(=CSC3=NC=N2)Cl)O

> <PUBCHEM_OPENEYE_ISO_SMILES>
C1=CC(=CC=C1NC2=C3C(=CSC3=NC=N2)Cl)O

> <PUBCHEM_CACTVS_TPSA>
86.3

> <PUBCHEM_MONOISOTOPIC_WEIGHT>
277.0076608

> <PUBCHEM_TOTAL_CHARGE>
0

> <PUBCHEM_HEAVY_ATOM_COUNT>
18

> <PUBCHEM_ATOM_DEF_STEREO_COUNT>
0

> <PUBCHEM_ATOM_UDEF_STEREO_COUNT>
0

> <PUBCHEM_BOND_DEF_STEREO_COUNT>
0

> <PUBCHEM_BOND_UDEF_STEREO_COUNT>
0

> <PUBCHEM_ISOTOPIC_ATOM_COUNT>
0

> <PUBCHEM_COMPONENT_COUNT>
1

> <PUBCHEM_CACTVS_TAUTO_COUNT>
-1

> <PUBCHEM_COORDINATE_TYPE>
1
5
255

> <PUBCHEM_BONDANNOTATIONS>
10  12  8
10  13  8
11  14  8
12  15  8
13  16  8
15  18  8
16  18  8
2  14  8
2  9  8
5  17  8
5  8  8
6  17  8
6  9  8
7  11  8
7  8  8
7  9  8

$$$$
