49830502
  -OEChem-03202501142D

 45 47  0     1  0  0  0  0  0999 V2000
    2.0000   -0.5000    0.0000 F   0  0  0  0  0  0  0  0  0  0  0  0
    3.7320    3.5000    0.0000 O   0  0  0  0  0  0  0  0  0  0  0  0
    2.8660    1.0000    0.0000 O   0  0  0  0  0  0  0  0  0  0  0  0
    4.5981    1.0000    0.0000 N   0  0  0  0  0  0  0  0  0  0  0  0
    3.7320   -5.5000    0.0000 N   0  0  0  0  0  0  0  0  0  0  0  0
    4.5981    2.0000    0.0000 C   0  0  3  0  0  0  0  0  0  0  0  0
    5.4641    2.5000    0.0000 C   0  0  0  0  0  0  0  0  0  0  0  0
    3.7320    2.5000    0.0000 C   0  0  0  0  0  0  0  0  0  0  0  0
    5.4641    3.5000    0.0000 C   0  0  0  0  0  0  0  0  0  0  0  0
    3.7320    0.5000    0.0000 C   0  0  0  0  0  0  0  0  0  0  0  0
    3.7320   -0.5000    0.0000 C   0  0  0  0  0  0  0  0  0  0  0  0
    6.3301    4.0000    0.0000 C   0  0  0  0  0  0  0  0  0  0  0  0
    4.5981    4.0000    0.0000 C   0  0  0  0  0  0  0  0  0  0  0  0
    3.7320   -2.5000    0.0000 C   0  0  0  0  0  0  0  0  0  0  0  0
    2.8660   -1.0000    0.0000 C   0  0  0  0  0  0  0  0  0  0  0  0
    4.5981   -1.0000    0.0000 C   0  0  0  0  0  0  0  0  0  0  0  0
    6.3301    5.0000    0.0000 C   0  0  0  0  0  0  0  0  0  0  0  0
    4.5981    5.0000    0.0000 C   0  0  0  0  0  0  0  0  0  0  0  0
    2.8660   -2.0000    0.0000 C   0  0  0  0  0  0  0  0  0  0  0  0
    4.5981   -2.0000    0.0000 C   0  0  0  0  0  0  0  0  0  0  0  0
    5.4641    5.5000    0.0000 C   0  0  0  0  0  0  0  0  0  0  0  0
    3.7320   -3.5000    0.0000 C   0  0  0  0  0  0  0  0  0  0  0  0
    2.8660   -4.0000    0.0000 C   0  0  0  0  0  0  0  0  0  0  0  0
    4.5981   -4.0000    0.0000 C   0  0  0  0  0  0  0  0  0  0  0  0
    2.8660   -5.0000    0.0000 C   0  0  0  0  0  0  0  0  0  0  0  0
    4.5981   -5.0000    0.0000 C   0  0  0  0  0  0  0  0  0  0  0  0
    5.1350    1.6900    0.0000 H   0  0  0  0  0  0  0  0  0  0  0  0
    5.6762    1.9174    0.0000 H   0  0  0  0  0  0  0  0  0  0  0  0
    6.0747    2.6077    0.0000 H   0  0  0  0  0  0  0  0  0  0  0  0
    3.1215    2.6077    0.0000 H   0  0  0  0  0  0  0  0  0  0  0  0
    3.5200    1.9174    0.0000 H   0  0  0  0  0  0  0  0  0  0  0  0
    5.1350    0.6900    0.0000 H   0  0  0  0  0  0  0  0  0  0  0  0
    6.8671    3.6900    0.0000 H   0  0  0  0  0  0  0  0  0  0  0  0
    4.0611    3.6900    0.0000 H   0  0  0  0  0  0  0  0  0  0  0  0
    5.1350   -0.6900    0.0000 H   0  0  0  0  0  0  0  0  0  0  0  0
    2.3291   -2.3100    0.0000 H   0  0  0  0  0  0  0  0  0  0  0  0
    5.1350   -2.3100    0.0000 H   0  0  0  0  0  0  0  0  0  0  0  0
    6.8671    5.3100    0.0000 H   0  0  0  0  0  0  0  0  0  0  0  0
    4.0611    5.3100    0.0000 H   0  0  0  0  0  0  0  0  0  0  0  0
    3.1951    3.8100    0.0000 H   0  0  0  0  0  0  0  0  0  0  0  0
    5.4641    6.1200    0.0000 H   0  0  0  0  0  0  0  0  0  0  0  0
    2.3291   -3.6900    0.0000 H   0  0  0  0  0  0  0  0  0  0  0  0
    5.1350   -3.6900    0.0000 H   0  0  0  0  0  0  0  0  0  0  0  0
    2.3291   -5.3100    0.0000 H   0  0  0  0  0  0  0  0  0  0  0  0
    5.1350   -5.3100    0.0000 H   0  0  0  0  0  0  0  0  0  0  0  0
  1 15  1  0  0  0  0
  2  8  1  0  0  0  0
  2 40  1  0  0  0  0
  3 10  2  0  0  0  0
  4  6  1  0  0  0  0
  4 10  1  0  0  0  0
  4 32  1  0  0  0  0
  5 25  2  0  0  0  0
  5 26  1  0  0  0  0
  6  7  1  0  0  0  0
  6  8  1  0  0  0  0
  6 27  1  0  0  0  0
  7  9  1  0  0  0  0
  7 28  1  0  0  0  0
  7 29  1  0  0  0  0
  8 30  1  0  0  0  0
  8 31  1  0  0  0  0
  9 12  2  0  0  0  0
  9 13  1  0  0  0  0
 10 11  1  0  0  0  0
 11 15  2  0  0  0  0
 11 16  1  0  0  0  0
 12 17  1  0  0  0  0
 12 33  1  0  0  0  0
 13 18  2  0  0  0  0
 13 34  1  0  0  0  0
 14 19  2  0  0  0  0
 14 20  1  0  0  0  0
 14 22  1  0  0  0  0
 15 19  1  0  0  0  0
 16 20  2  0  0  0  0
 16 35  1  0  0  0  0
 17 21  2  0  0  0  0
 17 38  1  0  0  0  0
 18 21  1  0  0  0  0
 18 39  1  0  0  0  0
 19 36  1  0  0  0  0
 20 37  1  0  0  0  0
 21 41  1  0  0  0  0
 22 23  2  0  0  0  0
 22 24  1  0  0  0  0
 23 25  1  0  0  0  0
 23 42  1  0  0  0  0
 24 26  2  0  0  0  0
 24 43  1  0  0  0  0
 25 44  1  0  0  0  0
 26 45  1  0  0  0  0
M  END
> <PUBCHEM_COMPOUND_CID>
49830502

> <PUBCHEM_COMPOUND_CANONICALIZED>
1

> <PUBCHEM_CACTVS_COMPLEXITY>
436

> <PUBCHEM_CACTVS_HBOND_ACCEPTOR>
4

> <PUBCHEM_CACTVS_HBOND_DONOR>
2

> <PUBCHEM_CACTVS_ROTATABLE_BOND>
6

> <PUBCHEM_CACTVS_SUBSKEYS>
AAADceB7MQAAAAAAAAAAAAAAAAAAAAAAAAA8YIAAAAAAAAAB0AAAHwAQCAAADCjhmg48gJLIEgCoAjF3VACCgCA1AiAI2KE4ZNgKMHLAlZGEYQhklgDYyYeYyOCOwAAAAAAAAACAAAAAAAAAAAAAAAAAAA==

> <PUBCHEM_IUPAC_OPENEYE_NAME>
N-(1-benzyl-2-hydroxy-ethyl)-2-fluoro-4-(4-pyridyl)benzamide

> <PUBCHEM_IUPAC_CAS_NAME>
2-fluoro-N-(1-hydroxy-3-phenylpropan-2-yl)-4-pyridin-4-ylbenzamide

> <PUBCHEM_IUPAC_NAME_MARKUP>
2-fluoro-<I>N</I>-(1-hydroxy-3-phenylpropan-2-yl)-4-pyridin-4-ylbenzamide

> <PUBCHEM_IUPAC_NAME>
2-fluoro-N-(1-hydroxy-3-phenylpropan-2-yl)-4-pyridin-4-ylbenzamide

> <PUBCHEM_IUPAC_SYSTEMATIC_NAME>
2-fluoranyl-N-(1-oxidanyl-3-phenyl-propan-2-yl)-4-pyridin-4-yl-benzamide

> <PUBCHEM_IUPAC_TRADITIONAL_NAME>
N-(1-benzyl-2-hydroxy-ethyl)-2-fluoro-4-(4-pyridyl)benzamide

> <PUBCHEM_IUPAC_INCHI>
InChI=1S/C21H19FN2O2/c22-20-13-17(16-8-10-23-11-9-16)6-7-19(20)21(26)24-18(14-25)12-15-4-2-1-3-5-15/h1-11,13,18,25H,12,14H2,(H,24,26)

> <PUBCHEM_IUPAC_INCHIKEY>
JIFGOPCFXJIPNK-UHFFFAOYSA-N

> <PUBCHEM_XLOGP3_AA>
3.2

> <PUBCHEM_EXACT_MASS>
350.14305602

> <PUBCHEM_MOLECULAR_FORMULA>
C21H19FN2O2

> <PUBCHEM_MOLECULAR_WEIGHT>
350.4

> <PUBCHEM_SMILES>
C1=CC=C(C=C1)CC(CO)NC(=O)C2=C(C=C(C=C2)C3=CC=NC=C3)F

> <PUBCHEM_OPENEYE_CAN_SMILES>
C1=CC=C(C=C1)CC(CO)NC(=O)C2=C(C=C(C=C2)C3=CC=NC=C3)F

> <PUBCHEM_OPENEYE_ISO_SMILES>
C1=CC=C(C=C1)CC(CO)NC(=O)C2=C(C=C(C=C2)C3=CC=NC=C3)F

> <PUBCHEM_CACTVS_TPSA>
62.2

> <PUBCHEM_MONOISOTOPIC_WEIGHT>
350.14305602

> <PUBCHEM_TOTAL_CHARGE>
0

> <PUBCHEM_HEAVY_ATOM_COUNT>
26

> <PUBCHEM_ATOM_DEF_STEREO_COUNT>
0

> <PUBCHEM_ATOM_UDEF_STEREO_COUNT>
1

> <PUBCHEM_BOND_DEF_STEREO_COUNT>
0

> <PUBCHEM_BOND_UDEF_STEREO_COUNT>
0

> <PUBCHEM_ISOTOPIC_ATOM_COUNT>
0

> <PUBCHEM_COMPONENT_COUNT>
1

> <PUBCHEM_CACTVS_TAUTO_COUNT>
-1

> <PUBCHEM_COORDINATE_TYPE>
1
5
255

> <PUBCHEM_BONDANNOTATIONS>
11  15  8
11  16  8
12  17  8
13  18  8
14  19  8
14  20  8
15  19  8
16  20  8
17  21  8
18  21  8
22  23  8
22  24  8
23  25  8
24  26  8
5  25  8
5  26  8
6  7  3
9  12  8
9  13  8

$$$$
