9857146
  -OEChem-03202506402D

 34 37  0     0  0  0  0  0  0999 V2000
    9.2619   -1.3282    0.0000 F   0  0  0  0  0  0  0  0  0  0  0  0
    3.7320   -1.8282    0.0000 N   0  0  0  0  0  0  0  0  0  0  0  0
    4.6783   -2.1329    0.0000 N   0  0  0  0  0  0  0  0  0  0  0  0
    5.6103    2.3282    0.0000 N   0  0  0  0  0  0  0  0  0  0  0  0
    4.6783   -0.5234    0.0000 C   0  0  0  0  0  0  0  0  0  0  0  0
    3.7320   -0.8281    0.0000 C   0  0  0  0  0  0  0  0  0  0  0  0
    5.2619   -1.3282    0.0000 C   0  0  0  0  0  0  0  0  0  0  0  0
    4.9889    0.4271    0.0000 C   0  0  0  0  0  0  0  0  0  0  0  0
    6.2619   -1.3282    0.0000 C   0  0  0  0  0  0  0  0  0  0  0  0
    2.8660   -0.3281    0.0000 C   0  0  0  0  0  0  0  0  0  0  0  0
    2.8660   -2.3282    0.0000 C   0  0  0  0  0  0  0  0  0  0  0  0
    2.0000   -0.8281    0.0000 C   0  0  0  0  0  0  0  0  0  0  0  0
    2.0000   -1.8282    0.0000 C   0  0  0  0  0  0  0  0  0  0  0  0
    6.7619   -0.4621    0.0000 C   0  0  0  0  0  0  0  0  0  0  0  0
    6.7619   -2.1942    0.0000 C   0  0  0  0  0  0  0  0  0  0  0  0
    4.3211    1.1714    0.0000 C   0  0  0  0  0  0  0  0  0  0  0  0
    5.9674    0.6333    0.0000 C   0  0  0  0  0  0  0  0  0  0  0  0
    7.7619   -0.4621    0.0000 C   0  0  0  0  0  0  0  0  0  0  0  0
    7.7619   -2.1942    0.0000 C   0  0  0  0  0  0  0  0  0  0  0  0
    8.2619   -1.3282    0.0000 C   0  0  0  0  0  0  0  0  0  0  0  0
    4.6318    2.1219    0.0000 C   0  0  0  0  0  0  0  0  0  0  0  0
    6.2781    1.5838    0.0000 C   0  0  0  0  0  0  0  0  0  0  0  0
    2.8660    0.2919    0.0000 H   0  0  0  0  0  0  0  0  0  0  0  0
    2.8660   -2.9482    0.0000 H   0  0  0  0  0  0  0  0  0  0  0  0
    1.4631   -0.5181    0.0000 H   0  0  0  0  0  0  0  0  0  0  0  0
    1.4631   -2.1382    0.0000 H   0  0  0  0  0  0  0  0  0  0  0  0
    6.4519    0.0748    0.0000 H   0  0  0  0  0  0  0  0  0  0  0  0
    6.4519   -2.7311    0.0000 H   0  0  0  0  0  0  0  0  0  0  0  0
    3.7144    1.0436    0.0000 H   0  0  0  0  0  0  0  0  0  0  0  0
    6.3815    0.1719    0.0000 H   0  0  0  0  0  0  0  0  0  0  0  0
    8.0719    0.0748    0.0000 H   0  0  0  0  0  0  0  0  0  0  0  0
    8.0719   -2.7311    0.0000 H   0  0  0  0  0  0  0  0  0  0  0  0
    4.2177    2.5834    0.0000 H   0  0  0  0  0  0  0  0  0  0  0  0
    6.8848    1.7117    0.0000 H   0  0  0  0  0  0  0  0  0  0  0  0
  1 20  1  0  0  0  0
  2  3  1  0  0  0  0
  2  6  1  0  0  0  0
  2 11  1  0  0  0  0
  3  7  2  0  0  0  0
  4 21  2  0  0  0  0
  4 22  1  0  0  0  0
  5  6  2  0  0  0  0
  5  7  1  0  0  0  0
  5  8  1  0  0  0  0
  6 10  1  0  0  0  0
  7  9  1  0  0  0  0
  8 16  2  0  0  0  0
  8 17  1  0  0  0  0
  9 14  2  0  0  0  0
  9 15  1  0  0  0  0
 10 12  2  0  0  0  0
 10 23  1  0  0  0  0
 11 13  2  0  0  0  0
 11 24  1  0  0  0  0
 12 13  1  0  0  0  0
 12 25  1  0  0  0  0
 13 26  1  0  0  0  0
 14 18  1  0  0  0  0
 14 27  1  0  0  0  0
 15 19  2  0  0  0  0
 15 28  1  0  0  0  0
 16 21  1  0  0  0  0
 16 29  1  0  0  0  0
 17 22  2  0  0  0  0
 17 30  1  0  0  0  0
 18 20  2  0  0  0  0
 18 31  1  0  0  0  0
 19 20  1  0  0  0  0
 19 32  1  0  0  0  0
 21 33  1  0  0  0  0
 22 34  1  0  0  0  0
M  END
> <PUBCHEM_COMPOUND_CID>
9857146

> <PUBCHEM_COMPOUND_CANONICALIZED>
1

> <PUBCHEM_CACTVS_COMPLEXITY>
363

> <PUBCHEM_CACTVS_HBOND_ACCEPTOR>
3

> <PUBCHEM_CACTVS_HBOND_DONOR>
0

> <PUBCHEM_CACTVS_ROTATABLE_BOND>
2

> <PUBCHEM_CACTVS_SUBSKEYS>
AAADccB7AQAAAAAAAAAAAAAAAAAAAWAAAAA8WIAAAAAAAFgB/AAAHQAIAAAADAjBHgw8wLIIEACiAzRnRACShCAxgiAY2CA4ZJgIIOLA0dGEpAhgiADIyAcQgMAOgAAAAAAAAAAAAAAAAAAAAAAAAAAAAA==

> <PUBCHEM_IUPAC_OPENEYE_NAME>
2-(4-fluorophenyl)-3-(4-pyridyl)pyrazolo[1,5-a]pyridine

> <PUBCHEM_IUPAC_CAS_NAME>
2-(4-fluorophenyl)-3-pyridin-4-ylpyrazolo[1,5-a]pyridine

> <PUBCHEM_IUPAC_NAME_MARKUP>
2-(4-fluorophenyl)-3-pyridin-4-ylpyrazolo[1,5-a]pyridine

> <PUBCHEM_IUPAC_NAME>
2-(4-fluorophenyl)-3-pyridin-4-ylpyrazolo[1,5-a]pyridine

> <PUBCHEM_IUPAC_SYSTEMATIC_NAME>
2-(4-fluorophenyl)-3-pyridin-4-yl-pyrazolo[1,5-a]pyridine

> <PUBCHEM_IUPAC_TRADITIONAL_NAME>
2-(4-fluorophenyl)-3-(4-pyridyl)pyrazolo[1,5-a]pyridine

> <PUBCHEM_IUPAC_INCHI>
InChI=1S/C18H12FN3/c19-15-6-4-14(5-7-15)18-17(13-8-10-20-11-9-13)16-3-1-2-12-22(16)21-18/h1-12H

> <PUBCHEM_IUPAC_INCHIKEY>
BUAIGJRXIAKFCN-UHFFFAOYSA-N

> <PUBCHEM_XLOGP3_AA>
3.4

> <PUBCHEM_EXACT_MASS>
289.10152556

> <PUBCHEM_MOLECULAR_FORMULA>
C18H12FN3

> <PUBCHEM_MOLECULAR_WEIGHT>
289.3

> <PUBCHEM_SMILES>
C1=CC2=C(C(=NN2C=C1)C3=CC=C(C=C3)F)C4=CC=NC=C4

> <PUBCHEM_OPENEYE_CAN_SMILES>
C1=CC2=C(C(=NN2C=C1)C3=CC=C(C=C3)F)C4=CC=NC=C4

> <PUBCHEM_OPENEYE_ISO_SMILES>
C1=CC2=C(C(=NN2C=C1)C3=CC=C(C=C3)F)C4=CC=NC=C4

> <PUBCHEM_CACTVS_TPSA>
30.2

> <PUBCHEM_MONOISOTOPIC_WEIGHT>
289.10152556

> <PUBCHEM_TOTAL_CHARGE>
0

> <PUBCHEM_HEAVY_ATOM_COUNT>
22

> <PUBCHEM_ATOM_DEF_STEREO_COUNT>
0

> <PUBCHEM_ATOM_UDEF_STEREO_COUNT>
0

> <PUBCHEM_BOND_DEF_STEREO_COUNT>
0

> <PUBCHEM_BOND_UDEF_STEREO_COUNT>
0

> <PUBCHEM_ISOTOPIC_ATOM_COUNT>
0

> <PUBCHEM_COMPONENT_COUNT>
1

> <PUBCHEM_CACTVS_TAUTO_COUNT>
-1

> <PUBCHEM_COORDINATE_TYPE>
1
5
255

> <PUBCHEM_BONDANNOTATIONS>
10  12  8
11  13  8
12  13  8
14  18  8
15  19  8
16  21  8
17  22  8
18  20  8
19  20  8
2  11  8
2  3  8
2  6  8
3  7  8
4  21  8
4  22  8
5  6  8
5  7  8
6  10  8
8  16  8
8  17  8
9  14  8
9  15  8

$$$$
