11407497
  -OEChem-03202502452D

 52 56  0     0  0  0  0  0  0999 V2000
    2.2008   -3.4042    0.0000 F   0  0  0  0  0  0  0  0  0  0  0  0
    3.6473    4.2702    0.0000 O   0  0  0  0  0  0  0  0  0  0  0  0
    8.6858   -4.2089    0.0000 O   0  0  0  0  0  0  0  0  0  0  0  0
    3.2872    2.5760    0.0000 N   0  0  0  0  0  0  0  0  0  0  0  0
    4.2142   -0.2772    0.0000 N   0  0  0  0  0  0  0  0  0  0  0  0
    5.5014   -1.4362    0.0000 N   0  0  0  0  0  0  0  0  0  0  0  0
    5.8615    0.2580    0.0000 N   0  0  0  0  0  0  0  0  0  0  0  0
    7.7396   -2.9042    0.0000 N   0  0  0  0  0  0  0  0  0  0  0  0
    6.7885   -4.2132    0.0000 N   0  0  0  0  0  0  0  0  0  0  0  0
    3.9052    0.6739    0.0000 C   0  0  0  0  0  0  0  0  0  0  0  0
    2.9270    0.8818    0.0000 C   0  0  0  0  0  0  0  0  0  0  0  0
    4.5743    1.4170    0.0000 C   0  0  0  0  0  0  0  0  0  0  0  0
    2.6180    1.8328    0.0000 C   0  0  0  0  0  0  0  0  0  0  0  0
    4.2653    2.3681    0.0000 C   0  0  0  0  0  0  0  0  0  0  0  0
    2.9782    3.5270    0.0000 C   0  0  0  0  0  0  0  0  0  0  0  0
    5.1924   -0.4851    0.0000 C   0  0  0  0  0  0  0  0  0  0  0  0
    2.0000    3.7349    0.0000 C   0  0  0  0  0  0  0  0  0  0  0  0
    6.4795   -1.6441    0.0000 C   0  0  0  0  0  0  0  0  0  0  0  0
    6.7885   -2.5951    0.0000 C   0  0  0  0  0  0  0  0  0  0  0  0
    6.2008   -3.4042    0.0000 C   0  0  0  0  0  0  0  0  0  0  0  0
    7.1487   -0.9009    0.0000 C   0  0  0  0  0  0  0  0  0  0  0  0
    7.7396   -3.9042    0.0000 C   0  0  0  0  0  0  0  0  0  0  0  0
    6.8396    0.0501    0.0000 C   0  0  0  0  0  0  0  0  0  0  0  0
    5.2008   -3.4042    0.0000 C   0  0  0  0  0  0  0  0  0  0  0  0
    8.6858   -2.5994    0.0000 C   0  0  0  0  0  0  0  0  0  0  0  0
    9.2694   -3.4042    0.0000 C   0  0  0  0  0  0  0  0  0  0  0  0
    4.7008   -4.2702    0.0000 C   0  0  0  0  0  0  0  0  0  0  0  0
    4.7008   -2.5381    0.0000 C   0  0  0  0  0  0  0  0  0  0  0  0
    3.7008   -4.2702    0.0000 C   0  0  0  0  0  0  0  0  0  0  0  0
    3.7008   -2.5381    0.0000 C   0  0  0  0  0  0  0  0  0  0  0  0
    3.2008   -3.4042    0.0000 C   0  0  0  0  0  0  0  0  0  0  0  0
    3.4903    0.2131    0.0000 H   0  0  0  0  0  0  0  0  0  0  0  0
    2.3131    0.7955    0.0000 H   0  0  0  0  0  0  0  0  0  0  0  0
    2.9054    0.2622    0.0000 H   0  0  0  0  0  0  0  0  0  0  0  0
    4.9560    0.9284    0.0000 H   0  0  0  0  0  0  0  0  0  0  0  0
    5.1218    1.7081    0.0000 H   0  0  0  0  0  0  0  0  0  0  0  0
    2.2363    2.3214    0.0000 H   0  0  0  0  0  0  0  0  0  0  0  0
    2.0706    1.5418    0.0000 H   0  0  0  0  0  0  0  0  0  0  0  0
    4.8793    2.4543    0.0000 H   0  0  0  0  0  0  0  0  0  0  0  0
    4.2870    2.9877    0.0000 H   0  0  0  0  0  0  0  0  0  0  0  0
    3.7994   -0.7379    0.0000 H   0  0  0  0  0  0  0  0  0  0  0  0
    2.1289    4.3414    0.0000 H   0  0  0  0  0  0  0  0  0  0  0  0
    1.3936    3.8638    0.0000 H   0  0  0  0  0  0  0  0  0  0  0  0
    1.8711    3.1285    0.0000 H   0  0  0  0  0  0  0  0  0  0  0  0
    7.7551   -1.0298    0.0000 H   0  0  0  0  0  0  0  0  0  0  0  0
    7.2545    0.5109    0.0000 H   0  0  0  0  0  0  0  0  0  0  0  0
    8.8784   -2.0101    0.0000 H   0  0  0  0  0  0  0  0  0  0  0  0
    9.8894   -3.4042    0.0000 H   0  0  0  0  0  0  0  0  0  0  0  0
    5.0108   -4.8071    0.0000 H   0  0  0  0  0  0  0  0  0  0  0  0
    5.0108   -2.0012    0.0000 H   0  0  0  0  0  0  0  0  0  0  0  0
    3.3908   -4.8071    0.0000 H   0  0  0  0  0  0  0  0  0  0  0  0
    3.3908   -2.0012    0.0000 H   0  0  0  0  0  0  0  0  0  0  0  0
  1 31  1  0  0  0  0
  2 15  2  0  0  0  0
  3 22  1  0  0  0  0
  3 26  1  0  0  0  0
  4 13  1  0  0  0  0
  4 14  1  0  0  0  0
  4 15  1  0  0  0  0
  5 10  1  0  0  0  0
  5 16  1  0  0  0  0
  5 41  1  0  0  0  0
  6 16  1  0  0  0  0
  6 18  2  0  0  0  0
  7 16  2  0  0  0  0
  7 23  1  0  0  0  0
  8 19  1  0  0  0  0
  8 22  1  0  0  0  0
  8 25  1  0  0  0  0
  9 20  1  0  0  0  0
  9 22  2  0  0  0  0
 10 11  1  0  0  0  0
 10 12  1  0  0  0  0
 10 32  1  0  0  0  0
 11 13  1  0  0  0  0
 11 33  1  0  0  0  0
 11 34  1  0  0  0  0
 12 14  1  0  0  0  0
 12 35  1  0  0  0  0
 12 36  1  0  0  0  0
 13 37  1  0  0  0  0
 13 38  1  0  0  0  0
 14 39  1  0  0  0  0
 14 40  1  0  0  0  0
 15 17  1  0  0  0  0
 17 42  1  0  0  0  0
 17 43  1  0  0  0  0
 17 44  1  0  0  0  0
 18 19  1  0  0  0  0
 18 21  1  0  0  0  0
 19 20  2  0  0  0  0
 20 24  1  0  0  0  0
 21 23  2  0  0  0  0
 21 45  1  0  0  0  0
 23 46  1  0  0  0  0
 24 27  2  0  0  0  0
 24 28  1  0  0  0  0
 25 26  2  0  0  0  0
 25 47  1  0  0  0  0
 26 48  1  0  0  0  0
 27 29  1  0  0  0  0
 27 49  1  0  0  0  0
 28 30  2  0  0  0  0
 28 50  1  0  0  0  0
 29 31  2  0  0  0  0
 29 51  1  0  0  0  0
 30 31  1  0  0  0  0
 30 52  1  0  0  0  0
M  END
> <PUBCHEM_COMPOUND_CID>
11407497

> <PUBCHEM_COMPOUND_CANONICALIZED>
1

> <PUBCHEM_CACTVS_COMPLEXITY>
625

> <PUBCHEM_CACTVS_HBOND_ACCEPTOR>
7

> <PUBCHEM_CACTVS_HBOND_DONOR>
1

> <PUBCHEM_CACTVS_ROTATABLE_BOND>
4

> <PUBCHEM_CACTVS_SUBSKEYS>
AAADceB7sQAAAAAAAAAAAAAAAAAAAWLAAAA8WIAAAAAWAAAB/AAAHwAQAAAADCjhng4/lJfMHECoAz139ASCiC07UqAJ2KC7dJiOaOLA2fGdJAholgLYyCcQgMAOAAAAAAAAAAAAAAAAAAAAAAAAAAAAAA==

> <PUBCHEM_IUPAC_OPENEYE_NAME>
1-[4-[[4-[6-(4-fluorophenyl)imidazo[2,1-b]oxazol-5-yl]pyrimidin-2-yl]amino]-1-piperidyl]ethanone

> <PUBCHEM_IUPAC_CAS_NAME>
1-[4-[[4-[6-(4-fluorophenyl)-5-imidazo[2,1-b]oxazolyl]-2-pyrimidinyl]amino]-1-piperidinyl]ethanone

> <PUBCHEM_IUPAC_NAME_MARKUP>
1-[4-[[4-[6-(4-fluorophenyl)imidazo[2,1-b][1,3]oxazol-5-yl]pyrimidin-2-yl]amino]piperidin-1-yl]ethanone

> <PUBCHEM_IUPAC_NAME>
1-[4-[[4-[6-(4-fluorophenyl)imidazo[2,1-b][1,3]oxazol-5-yl]pyrimidin-2-yl]amino]piperidin-1-yl]ethanone

> <PUBCHEM_IUPAC_SYSTEMATIC_NAME>
1-[4-[[4-[6-(4-fluorophenyl)imidazo[2,1-b][1,3]oxazol-5-yl]pyrimidin-2-yl]amino]piperidin-1-yl]ethanone

> <PUBCHEM_IUPAC_TRADITIONAL_NAME>
1-[4-[[4-[6-(4-fluorophenyl)imidazo[2,1-b]oxazol-5-yl]pyrimidin-2-yl]amino]piperidino]ethanone

> <PUBCHEM_IUPAC_INCHI>
InChI=1S/C22H21FN6O2/c1-14(30)28-10-7-17(8-11-28)25-21-24-9-6-18(26-21)20-19(15-2-4-16(23)5-3-15)27-22-29(20)12-13-31-22/h2-6,9,12-13,17H,7-8,10-11H2,1H3,(H,24,25,26)

> <PUBCHEM_IUPAC_INCHIKEY>
LRESELHEXSUQGE-UHFFFAOYSA-N

> <PUBCHEM_XLOGP3_AA>
3.4

> <PUBCHEM_EXACT_MASS>
420.17100210

> <PUBCHEM_MOLECULAR_FORMULA>
C22H21FN6O2

> <PUBCHEM_MOLECULAR_WEIGHT>
420.4

> <PUBCHEM_SMILES>
CC(=O)N1CCC(CC1)NC2=NC=CC(=N2)C3=C(N=C4N3C=CO4)C5=CC=C(C=C5)F

> <PUBCHEM_OPENEYE_CAN_SMILES>
CC(=O)N1CCC(CC1)NC2=NC=CC(=N2)C3=C(N=C4N3C=CO4)C5=CC=C(C=C5)F

> <PUBCHEM_OPENEYE_ISO_SMILES>
CC(=O)N1CCC(CC1)NC2=NC=CC(=N2)C3=C(N=C4N3C=CO4)C5=CC=C(C=C5)F

> <PUBCHEM_CACTVS_TPSA>
88.6

> <PUBCHEM_MONOISOTOPIC_WEIGHT>
420.17100210

> <PUBCHEM_TOTAL_CHARGE>
0

> <PUBCHEM_HEAVY_ATOM_COUNT>
31

> <PUBCHEM_ATOM_DEF_STEREO_COUNT>
0

> <PUBCHEM_ATOM_UDEF_STEREO_COUNT>
0

> <PUBCHEM_BOND_DEF_STEREO_COUNT>
0

> <PUBCHEM_BOND_UDEF_STEREO_COUNT>
0

> <PUBCHEM_ISOTOPIC_ATOM_COUNT>
0

> <PUBCHEM_COMPONENT_COUNT>
1

> <PUBCHEM_CACTVS_TAUTO_COUNT>
-1

> <PUBCHEM_COORDINATE_TYPE>
1
5
255

> <PUBCHEM_BONDANNOTATIONS>
18  21  8
19  20  8
21  23  8
24  27  8
24  28  8
25  26  8
27  29  8
28  30  8
29  31  8
3  22  8
3  26  8
30  31  8
6  16  8
6  18  8
7  16  8
7  23  8
8  19  8
8  22  8
8  25  8
9  20  8
9  22  8

$$$$
