44269518
  -OEChem-03202505132D

 31 34  0     0  0  0  0  0  0999 V2000
    4.5274    0.0172    0.0000 N   0  0  0  0  0  0  0  0  0  0  0  0
    7.0547   -1.1070    0.0000 N   0  0  0  0  0  0  0  0  0  0  0  0
    7.5856    1.9362    0.0000 N   0  0  0  0  0  0  0  0  0  0  0  0
    6.0527    1.4184    0.0000 N   0  0  0  0  0  0  0  0  0  0  0  0
    5.3364   -0.5706    0.0000 C   0  0  0  0  0  0  0  0  0  0  0  0
    5.0274   -1.5216    0.0000 C   0  0  0  0  0  0  0  0  0  0  0  0
    4.0274   -1.5216    0.0000 C   0  0  0  0  0  0  0  0  0  0  0  0
    3.7183   -0.5706    0.0000 C   0  0  0  0  0  0  0  0  0  0  0  0
    6.3518   -0.3383    0.0000 C   0  0  0  0  0  0  0  0  0  0  0  0
    6.6498    0.6162    0.0000 C   0  0  0  0  0  0  0  0  0  0  0  0
    5.7123   -2.3064    0.0000 C   0  0  0  0  0  0  0  0  0  0  0  0
    3.3424   -2.3064    0.0000 C   0  0  0  0  0  0  0  0  0  0  0  0
    2.7029   -0.3383    0.0000 C   0  0  0  0  0  0  0  0  0  0  0  0
    7.5972    0.9362    0.0000 C   0  0  0  0  0  0  0  0  0  0  0  0
    6.7328   -2.0977    0.0000 C   0  0  0  0  0  0  0  0  0  0  0  0
    2.3219   -2.0977    0.0000 C   0  0  0  0  0  0  0  0  0  0  0  0
    2.0000   -1.1070    0.0000 C   0  0  0  0  0  0  0  0  0  0  0  0
    8.4130    0.3578    0.0000 C   0  0  0  0  0  0  0  0  0  0  0  0
    6.6311    2.2342    0.0000 C   0  0  0  0  0  0  0  0  0  0  0  0
    4.5274    0.6372    0.0000 H   0  0  0  0  0  0  0  0  0  0  0  0
    5.5139   -2.8938    0.0000 H   0  0  0  0  0  0  0  0  0  0  0  0
    3.5408   -2.8938    0.0000 H   0  0  0  0  0  0  0  0  0  0  0  0
    2.5182    0.2535    0.0000 H   0  0  0  0  0  0  0  0  0  0  0  0
    7.1459   -2.5600    0.0000 H   0  0  0  0  0  0  0  0  0  0  0  0
    1.9088   -2.5600    0.0000 H   0  0  0  0  0  0  0  0  0  0  0  0
    1.3940   -0.9758    0.0000 H   0  0  0  0  0  0  0  0  0  0  0  0
    8.0830    2.3064    0.0000 H   0  0  0  0  0  0  0  0  0  0  0  0
    8.0544   -0.1479    0.0000 H   0  0  0  0  0  0  0  0  0  0  0  0
    8.9187   -0.0008    0.0000 H   0  0  0  0  0  0  0  0  0  0  0  0
    8.7716    0.8636    0.0000 H   0  0  0  0  0  0  0  0  0  0  0  0
    6.4327    2.8216    0.0000 H   0  0  0  0  0  0  0  0  0  0  0  0
  1  5  1  0  0  0  0
  1  8  1  0  0  0  0
  1 20  1  0  0  0  0
  2  9  2  0  0  0  0
  2 15  1  0  0  0  0
  3 14  1  0  0  0  0
  3 19  1  0  0  0  0
  3 27  1  0  0  0  0
  4 10  1  0  0  0  0
  4 19  2  0  0  0  0
  5  6  2  0  0  0  0
  5  9  1  0  0  0  0
  6  7  1  0  0  0  0
  6 11  1  0  0  0  0
  7  8  1  0  0  0  0
  7 12  2  0  0  0  0
  8 13  2  0  0  0  0
  9 10  1  0  0  0  0
 10 14  2  0  0  0  0
 11 15  2  0  0  0  0
 11 21  1  0  0  0  0
 12 16  1  0  0  0  0
 12 22  1  0  0  0  0
 13 17  1  0  0  0  0
 13 23  1  0  0  0  0
 14 18  1  0  0  0  0
 15 24  1  0  0  0  0
 16 17  2  0  0  0  0
 16 25  1  0  0  0  0
 17 26  1  0  0  0  0
 18 28  1  0  0  0  0
 18 29  1  0  0  0  0
 18 30  1  0  0  0  0
 19 31  1  0  0  0  0
M  END
> <PUBCHEM_COMPOUND_CID>
44269518

> <PUBCHEM_COMPOUND_CANONICALIZED>
1

> <PUBCHEM_CACTVS_COMPLEXITY>
334

> <PUBCHEM_CACTVS_HBOND_ACCEPTOR>
2

> <PUBCHEM_CACTVS_HBOND_DONOR>
2

> <PUBCHEM_CACTVS_ROTATABLE_BOND>
1

> <PUBCHEM_CACTVS_SUBSKEYS>
AAADccBzgAAAAAAAAAAAAAAAAAAAAWLAAAA8QAAAAAAAAFgB/gAAHAAQAAAADAjBHgQ/0PbJkACgAzRnZACCgC2xEqAJ2aA4dJiIaOLA2ZGUIAhokALIyCcQgMAOgAAAAAACAAAAAAAAAAQAAAAAAAAAAA==

> <PUBCHEM_IUPAC_OPENEYE_NAME>
1-(5-methyl-1H-imidazol-4-yl)-9H-pyrido[3,4-b]indole

> <PUBCHEM_IUPAC_CAS_NAME>
1-(5-methyl-1H-imidazol-4-yl)-9H-pyrido[3,4-b]indole

> <PUBCHEM_IUPAC_NAME_MARKUP>
1-(5-methyl-1<I>H</I>-imidazol-4-yl)-9<I>H</I>-pyrido[3,4-b]indole

> <PUBCHEM_IUPAC_NAME>
1-(5-methyl-1H-imidazol-4-yl)-9H-pyrido[3,4-b]indole

> <PUBCHEM_IUPAC_SYSTEMATIC_NAME>
1-(5-methyl-1H-imidazol-4-yl)-9H-pyrido[3,4-b]indole

> <PUBCHEM_IUPAC_TRADITIONAL_NAME>
1-(5-methyl-1H-imidazol-4-yl)-9H-beta-carboline

> <PUBCHEM_IUPAC_INCHI>
InChI=1S/C15H12N4/c1-9-13(18-8-17-9)15-14-11(6-7-16-15)10-4-2-3-5-12(10)19-14/h2-8,19H,1H3,(H,17,18)

> <PUBCHEM_IUPAC_INCHIKEY>
JYMJXRXSEUMGMU-UHFFFAOYSA-N

> <PUBCHEM_XLOGP3_AA>
2.6

> <PUBCHEM_EXACT_MASS>
248.106196400

> <PUBCHEM_MOLECULAR_FORMULA>
C15H12N4

> <PUBCHEM_MOLECULAR_WEIGHT>
248.28

> <PUBCHEM_SMILES>
CC1=C(N=CN1)C2=NC=CC3=C2NC4=CC=CC=C34

> <PUBCHEM_OPENEYE_CAN_SMILES>
CC1=C(N=CN1)C2=NC=CC3=C2NC4=CC=CC=C34

> <PUBCHEM_OPENEYE_ISO_SMILES>
CC1=C(N=CN1)C2=NC=CC3=C2NC4=CC=CC=C34

> <PUBCHEM_CACTVS_TPSA>
57.4

> <PUBCHEM_MONOISOTOPIC_WEIGHT>
248.106196400

> <PUBCHEM_TOTAL_CHARGE>
0

> <PUBCHEM_HEAVY_ATOM_COUNT>
19

> <PUBCHEM_ATOM_DEF_STEREO_COUNT>
0

> <PUBCHEM_ATOM_UDEF_STEREO_COUNT>
0

> <PUBCHEM_BOND_DEF_STEREO_COUNT>
0

> <PUBCHEM_BOND_UDEF_STEREO_COUNT>
0

> <PUBCHEM_ISOTOPIC_ATOM_COUNT>
0

> <PUBCHEM_COMPONENT_COUNT>
1

> <PUBCHEM_CACTVS_TAUTO_COUNT>
-1

> <PUBCHEM_COORDINATE_TYPE>
1
5
255

> <PUBCHEM_BONDANNOTATIONS>
1  5  8
1  8  8
10  14  8
11  15  8
12  16  8
13  17  8
16  17  8
2  15  8
2  9  8
3  14  8
3  19  8
4  10  8
4  19  8
5  6  8
5  9  8
6  11  8
6  7  8
7  12  8
7  8  8
8  13  8

$$$$
