135449326
  -OEChem-03202506022D

 48 51  0     1  0  0  0  0  0999 V2000
    2.0000   -2.7907    0.0000 Cl  0  0  0  0  0  0  0  0  0  0  0  0
    5.7388   -0.4610    0.0000 Cl  0  0  0  0  0  0  0  0  0  0  0  0
    3.7320   -3.7907    0.0000 F   0  0  0  0  0  0  0  0  0  0  0  0
    2.8660    1.7093    0.0000 O   0  0  0  0  0  0  0  0  0  0  0  0
    3.7320    2.2093    0.0000 O   0  0  0  0  0  0  0  0  0  0  0  0
    4.5981    0.7093    0.0000 N   0  0  0  0  0  0  0  0  0  0  0  0
    5.5686    3.2038    0.0000 N   0  0  0  0  0  0  0  0  0  0  0  0
    8.7104    3.1843    0.0000 N   0  0  0  0  0  0  0  0  0  0  0  0
    9.6240    2.7776    0.0000 N   0  0  0  0  0  0  0  0  0  0  0  0
    3.7320    0.2093    0.0000 C   0  0  1  0  0  0  0  0  0  0  0  0
    7.0468    2.5457    0.0000 C   0  0  0  0  0  0  0  0  0  0  0  0
    3.7320   -0.7907    0.0000 C   0  0  0  0  0  0  0  0  0  0  0  0
    5.4641    2.2093    0.0000 C   0  0  0  0  0  0  0  0  0  0  0  0
    8.0413    2.4411    0.0000 C   0  0  0  0  0  0  0  0  0  0  0  0
    2.8660    0.7093    0.0000 C   0  0  0  0  0  0  0  0  0  0  0  0
    6.3776    1.8025    0.0000 C   0  0  0  0  0  0  0  0  0  0  0  0
    4.5981    1.7093    0.0000 C   0  0  0  0  0  0  0  0  0  0  0  0
    8.5413    1.5751    0.0000 C   0  0  0  0  0  0  0  0  0  0  0  0
    6.5468    3.4117    0.0000 C   0  0  0  0  0  0  0  0  0  0  0  0
    8.1346    0.6616    0.0000 C   0  0  0  0  0  0  0  0  0  0  0  0
    2.8660   -1.2907    0.0000 C   0  0  0  0  0  0  0  0  0  0  0  0
    4.5981   -1.2907    0.0000 C   0  0  0  0  0  0  0  0  0  0  0  0
    9.5195    1.7830    0.0000 C   0  0  0  0  0  0  0  0  0  0  0  0
    2.8660   -2.2907    0.0000 C   0  0  0  0  0  0  0  0  0  0  0  0
    4.5981   -2.2907    0.0000 C   0  0  0  0  0  0  0  0  0  0  0  0
    7.1400    0.5570    0.0000 C   0  0  0  0  0  0  0  0  0  0  0  0
    8.7224   -0.1474    0.0000 C   0  0  0  0  0  0  0  0  0  0  0  0
    3.7320   -2.7907    0.0000 C   0  0  0  0  0  0  0  0  0  0  0  0
    6.7333   -0.3565    0.0000 C   0  0  0  0  0  0  0  0  0  0  0  0
    8.3156   -1.0610    0.0000 C   0  0  0  0  0  0  0  0  0  0  0  0
    7.3211   -1.1655    0.0000 C   0  0  0  0  0  0  0  0  0  0  0  0
    3.7320    0.8293    0.0000 H   0  0  0  0  0  0  0  0  0  0  0  0
    5.1350    0.3993    0.0000 H   0  0  0  0  0  0  0  0  0  0  0  0
    2.2554    0.8169    0.0000 H   0  0  0  0  0  0  0  0  0  0  0  0
    2.6540    0.1267    0.0000 H   0  0  0  0  0  0  0  0  0  0  0  0
    6.5066    1.1961    0.0000 H   0  0  0  0  0  0  0  0  0  0  0  0
    6.7990    3.9781    0.0000 H   0  0  0  0  0  0  0  0  0  0  0  0
    5.1079    3.6186    0.0000 H   0  0  0  0  0  0  0  0  0  0  0  0
    2.3291   -0.9807    0.0000 H   0  0  0  0  0  0  0  0  0  0  0  0
    5.1350   -0.9807    0.0000 H   0  0  0  0  0  0  0  0  0  0  0  0
    8.5815    3.7907    0.0000 H   0  0  0  0  0  0  0  0  0  0  0  0
    9.9802    1.3682    0.0000 H   0  0  0  0  0  0  0  0  0  0  0  0
    5.1350   -2.6007    0.0000 H   0  0  0  0  0  0  0  0  0  0  0  0
    6.7756    1.0586    0.0000 H   0  0  0  0  0  0  0  0  0  0  0  0
    9.3390   -0.0826    0.0000 H   0  0  0  0  0  0  0  0  0  0  0  0
    2.3291    2.0193    0.0000 H   0  0  0  0  0  0  0  0  0  0  0  0
    8.6800   -1.5626    0.0000 H   0  0  0  0  0  0  0  0  0  0  0  0
    7.0689   -1.7319    0.0000 H   0  0  0  0  0  0  0  0  0  0  0  0
  1 24  1  0  0  0  0
  2 29  1  0  0  0  0
  3 28  1  0  0  0  0
  4 15  1  0  0  0  0
  4 46  1  0  0  0  0
  5 17  2  0  0  0  0
 10  6  1  1  0  0  0
  6 17  1  0  0  0  0
  6 33  1  0  0  0  0
  7 13  1  0  0  0  0
  7 19  1  0  0  0  0
  7 38  1  0  0  0  0
  8  9  1  0  0  0  0
  8 14  1  0  0  0  0
  8 41  1  0  0  0  0
  9 23  2  0  0  0  0
 10 12  1  0  0  0  0
 10 15  1  0  0  0  0
 10 32  1  0  0  0  0
 11 14  1  0  0  0  0
 11 16  1  0  0  0  0
 11 19  2  0  0  0  0
 12 21  2  0  0  0  0
 12 22  1  0  0  0  0
 13 16  2  0  0  0  0
 13 17  1  0  0  0  0
 14 18  2  0  0  0  0
 15 34  1  0  0  0  0
 15 35  1  0  0  0  0
 16 36  1  0  0  0  0
 18 20  1  0  0  0  0
 18 23  1  0  0  0  0
 19 37  1  0  0  0  0
 20 26  2  0  0  0  0
 20 27  1  0  0  0  0
 21 24  1  0  0  0  0
 21 39  1  0  0  0  0
 22 25  2  0  0  0  0
 22 40  1  0  0  0  0
 23 42  1  0  0  0  0
 24 28  2  0  0  0  0
 25 28  1  0  0  0  0
 25 43  1  0  0  0  0
 26 29  1  0  0  0  0
 26 44  1  0  0  0  0
 27 30  2  0  0  0  0
 27 45  1  0  0  0  0
 29 31  2  0  0  0  0
 30 31  1  0  0  0  0
 30 47  1  0  0  0  0
 31 48  1  0  0  0  0
M  END
> <PUBCHEM_COMPOUND_CID>
135449326

> <PUBCHEM_COMPOUND_CANONICALIZED>
1

> <PUBCHEM_CACTVS_COMPLEXITY>
618

> <PUBCHEM_CACTVS_HBOND_ACCEPTOR>
4

> <PUBCHEM_CACTVS_HBOND_DONOR>
4

> <PUBCHEM_CACTVS_ROTATABLE_BOND>
6

> <PUBCHEM_CACTVS_SUBSKEYS>
AAADceB7sQAGAAAAAAAAAAAAAAAAAWLAAAAwYAAAAAAAAAAB9AAAHwIYCAAADCrhni48gJLrkgCqAzV3VACShCA3hyAY+aG4ZtgKcPLB1/GU5Qhk3gHYyYeYyeCegAAAIAAAAAAAAABAAAAAAAAAAAAAAA==

> <PUBCHEM_IUPAC_OPENEYE_NAME>
N-[(1S)-1-(3-chloro-4-fluoro-phenyl)-2-hydroxy-ethyl]-4-[4-(3-chlorophenyl)-1H-pyrazol-5-yl]-1H-pyrrole-2-carboxamide

> <PUBCHEM_IUPAC_CAS_NAME>
N-[(1S)-1-(3-chloro-4-fluorophenyl)-2-hydroxyethyl]-4-[4-(3-chlorophenyl)-1H-pyrazol-5-yl]-1H-pyrrole-2-carboxamide

> <PUBCHEM_IUPAC_NAME_MARKUP>
<I>N</I>-[(1<I>S</I>)-1-(3-chloro-4-fluorophenyl)-2-hydroxyethyl]-4-[4-(3-chlorophenyl)-1<I>H</I>-pyrazol-5-yl]-1<I>H</I>-pyrrole-2-carboxamide

> <PUBCHEM_IUPAC_NAME>
N-[(1S)-1-(3-chloro-4-fluorophenyl)-2-hydroxyethyl]-4-[4-(3-chlorophenyl)-1H-pyrazol-5-yl]-1H-pyrrole-2-carboxamide

> <PUBCHEM_IUPAC_SYSTEMATIC_NAME>
N-[(1S)-1-(3-chloranyl-4-fluoranyl-phenyl)-2-oxidanyl-ethyl]-4-[4-(3-chlorophenyl)-1H-pyrazol-5-yl]-1H-pyrrole-2-carboxamide

> <PUBCHEM_IUPAC_TRADITIONAL_NAME>
N-[(1S)-1-(3-chloro-4-fluoro-phenyl)-2-hydroxy-ethyl]-4-[4-(3-chlorophenyl)-1H-pyrazol-5-yl]-1H-pyrrole-2-carboxamide

> <PUBCHEM_IUPAC_INCHI>
InChI=1S/C22H17Cl2FN4O2/c23-15-3-1-2-12(6-15)16-10-27-29-21(16)14-8-19(26-9-14)22(31)28-20(11-30)13-4-5-18(25)17(24)7-13/h1-10,20,26,30H,11H2,(H,27,29)(H,28,31)/t20-/m1/s1

> <PUBCHEM_IUPAC_INCHIKEY>
YMUYGRBBEDYUOP-HXUWFJFHSA-N

> <PUBCHEM_XLOGP3_AA>
4.1

> <PUBCHEM_EXACT_MASS>
458.0712593

> <PUBCHEM_MOLECULAR_FORMULA>
C22H17Cl2FN4O2

> <PUBCHEM_MOLECULAR_WEIGHT>
459.3

> <PUBCHEM_SMILES>
C1=CC(=CC(=C1)Cl)C2=C(NN=C2)C3=CNC(=C3)C(=O)N[C@H](CO)C4=CC(=C(C=C4)F)Cl

> <PUBCHEM_OPENEYE_CAN_SMILES>
C1=CC(=CC(=C1)Cl)C2=C(NN=C2)C3=CNC(=C3)C(=O)NC(CO)C4=CC(=C(C=C4)F)Cl

> <PUBCHEM_OPENEYE_ISO_SMILES>
C1=CC(=CC(=C1)Cl)C2=C(NN=C2)C3=CNC(=C3)C(=O)N[C@H](CO)C4=CC(=C(C=C4)F)Cl

> <PUBCHEM_CACTVS_TPSA>
93.8

> <PUBCHEM_MONOISOTOPIC_WEIGHT>
458.0712593

> <PUBCHEM_TOTAL_CHARGE>
0

> <PUBCHEM_HEAVY_ATOM_COUNT>
31

> <PUBCHEM_ATOM_DEF_STEREO_COUNT>
1

> <PUBCHEM_ATOM_UDEF_STEREO_COUNT>
0

> <PUBCHEM_BOND_DEF_STEREO_COUNT>
0

> <PUBCHEM_BOND_UDEF_STEREO_COUNT>
0

> <PUBCHEM_ISOTOPIC_ATOM_COUNT>
0

> <PUBCHEM_COMPONENT_COUNT>
1

> <PUBCHEM_CACTVS_TAUTO_COUNT>
-1

> <PUBCHEM_COORDINATE_TYPE>
1
5
255

> <PUBCHEM_BONDANNOTATIONS>
11  16  8
11  19  8
12  21  8
12  22  8
13  16  8
14  18  8
18  23  8
20  26  8
20  27  8
21  24  8
22  25  8
24  28  8
25  28  8
26  29  8
27  30  8
29  31  8
30  31  8
10  6  5
7  13  8
7  19  8
8  14  8
8  9  8
9  23  8

$$$$
