49830416
  -OEChem-03202501242D

 80 86  0     0  0  0  0  0  0999 V2000
   11.9851   -3.6105    0.0000 S   0  0  0  0  0  0  0  0  0  0  0  0
    9.5719    5.1959    0.0000 O   0  0  0  0  0  0  0  0  0  0  0  0
    5.0000   -5.4038    0.0000 O   0  0  0  0  0  0  0  0  0  0  0  0
    8.2337    3.7096    0.0000 N   0  0  0  0  0  0  0  0  0  0  0  0
   11.0388   -2.3057    0.0000 N   0  0  0  0  0  0  0  0  0  0  0  0
    8.5000   -4.5378    0.0000 N   0  0  0  0  0  0  0  0  0  0  0  0
   10.0878   -3.6148    0.0000 N   0  0  0  0  0  0  0  0  0  0  0  0
    7.5135    0.3212    0.0000 N   0  0  0  0  0  0  0  0  0  0  0  0
    6.5000   -4.5378    0.0000 N   0  0  0  0  0  0  0  0  0  0  0  0
    8.8006   -0.8378    0.0000 N   0  0  0  0  0  0  0  0  0  0  0  0
    9.1607    0.8564    0.0000 N   0  0  0  0  0  0  0  0  0  0  0  0
    7.9247    4.6607    0.0000 C   0  0  0  0  0  0  0  0  0  0  0  0
    9.2118    3.5017    0.0000 C   0  0  0  0  0  0  0  0  0  0  0  0
    8.5938    5.4038    0.0000 C   0  0  0  0  0  0  0  0  0  0  0  0
    9.8810    4.2448    0.0000 C   0  0  0  0  0  0  0  0  0  0  0  0
    7.5646    2.9665    0.0000 C   0  0  0  0  0  0  0  0  0  0  0  0
    9.5000   -2.8057    0.0000 C   0  0  0  0  0  0  0  0  0  0  0  0
   10.0878   -1.9967    0.0000 C   0  0  0  0  0  0  0  0  0  0  0  0
    8.5000   -2.8057    0.0000 C   0  0  0  0  0  0  0  0  0  0  0  0
    8.0000   -3.6718    0.0000 C   0  0  0  0  0  0  0  0  0  0  0  0
    7.8736    2.0154    0.0000 C   0  0  0  0  0  0  0  0  0  0  0  0
    6.5864    3.1744    0.0000 C   0  0  0  0  0  0  0  0  0  0  0  0
   11.0388   -3.3057    0.0000 C   0  0  0  0  0  0  0  0  0  0  0  0
    7.0000   -3.6718    0.0000 C   0  0  0  0  0  0  0  0  0  0  0  0
    7.2044    1.2723    0.0000 C   0  0  0  0  0  0  0  0  0  0  0  0
    9.7788   -1.0457    0.0000 C   0  0  0  0  0  0  0  0  0  0  0  0
    8.0000   -1.9397    0.0000 C   0  0  0  0  0  0  0  0  0  0  0  0
    5.9173    2.4312    0.0000 C   0  0  0  0  0  0  0  0  0  0  0  0
   11.9851   -2.0010    0.0000 C   0  0  0  0  0  0  0  0  0  0  0  0
    6.2263    1.4802    0.0000 C   0  0  0  0  0  0  0  0  0  0  0  0
    6.5000   -2.8057    0.0000 C   0  0  0  0  0  0  0  0  0  0  0  0
    7.0000   -1.9397    0.0000 C   0  0  0  0  0  0  0  0  0  0  0  0
    8.4916    0.1133    0.0000 C   0  0  0  0  0  0  0  0  0  0  0  0
   10.4479   -0.3025    0.0000 C   0  0  0  0  0  0  0  0  0  0  0  0
   12.5687   -2.8057    0.0000 C   0  0  0  0  0  0  0  0  0  0  0  0
    8.0000   -5.4038    0.0000 C   0  0  0  0  0  0  0  0  0  0  0  0
    9.5000   -4.5378    0.0000 C   0  0  0  0  0  0  0  0  0  0  0  0
    5.5000   -4.5378    0.0000 C   0  0  0  0  0  0  0  0  0  0  0  0
   10.1389    0.6485    0.0000 C   0  0  0  0  0  0  0  0  0  0  0  0
    5.0000   -3.6718    0.0000 C   0  0  0  0  0  0  0  0  0  0  0  0
    4.0000   -3.6718    0.0000 C   0  0  0  0  0  0  0  0  0  0  0  0
    3.5000   -4.5378    0.0000 C   0  0  0  0  0  0  0  0  0  0  0  0
    3.5000   -2.8057    0.0000 C   0  0  0  0  0  0  0  0  0  0  0  0
    2.5000   -4.5378    0.0000 C   0  0  0  0  0  0  0  0  0  0  0  0
    2.5000   -2.8057    0.0000 C   0  0  0  0  0  0  0  0  0  0  0  0
    2.0000   -3.6718    0.0000 C   0  0  0  0  0  0  0  0  0  0  0  0
    7.5430    5.1492    0.0000 H   0  0  0  0  0  0  0  0  0  0  0  0
    7.3772    4.3696    0.0000 H   0  0  0  0  0  0  0  0  0  0  0  0
    8.9796    2.9268    0.0000 H   0  0  0  0  0  0  0  0  0  0  0  0
    9.7376    3.1732    0.0000 H   0  0  0  0  0  0  0  0  0  0  0  0
    8.8260    5.9787    0.0000 H   0  0  0  0  0  0  0  0  0  0  0  0
    8.0680    5.7324    0.0000 H   0  0  0  0  0  0  0  0  0  0  0  0
   10.2627    3.7563    0.0000 H   0  0  0  0  0  0  0  0  0  0  0  0
   10.4284    4.5359    0.0000 H   0  0  0  0  0  0  0  0  0  0  0  0
    8.4800    1.8865    0.0000 H   0  0  0  0  0  0  0  0  0  0  0  0
    6.3948    3.7640    0.0000 H   0  0  0  0  0  0  0  0  0  0  0  0
    8.3100   -1.4028    0.0000 H   0  0  0  0  0  0  0  0  0  0  0  0
   12.1777   -1.4117    0.0000 H   0  0  0  0  0  0  0  0  0  0  0  0
    5.3108    2.5601    0.0000 H   0  0  0  0  0  0  0  0  0  0  0  0
    5.8114    1.0194    0.0000 H   0  0  0  0  0  0  0  0  0  0  0  0
    5.8800   -2.8057    0.0000 H   0  0  0  0  0  0  0  0  0  0  0  0
    6.6900   -1.4028    0.0000 H   0  0  0  0  0  0  0  0  0  0  0  0
    7.0986   -0.1395    0.0000 H   0  0  0  0  0  0  0  0  0  0  0  0
    6.8100   -5.0747    0.0000 H   0  0  0  0  0  0  0  0  0  0  0  0
   11.0544   -0.4314    0.0000 H   0  0  0  0  0  0  0  0  0  0  0  0
   13.1887   -2.8057    0.0000 H   0  0  0  0  0  0  0  0  0  0  0  0
    7.4631   -5.0938    0.0000 H   0  0  0  0  0  0  0  0  0  0  0  0
    7.6900   -5.9408    0.0000 H   0  0  0  0  0  0  0  0  0  0  0  0
    8.5369   -5.7138    0.0000 H   0  0  0  0  0  0  0  0  0  0  0  0
    9.5000   -5.1578    0.0000 H   0  0  0  0  0  0  0  0  0  0  0  0
   10.1200   -4.5378    0.0000 H   0  0  0  0  0  0  0  0  0  0  0  0
    9.5000   -3.9178    0.0000 H   0  0  0  0  0  0  0  0  0  0  0  0
   10.5537    1.1093    0.0000 H   0  0  0  0  0  0  0  0  0  0  0  0
    5.5826   -3.4597    0.0000 H   0  0  0  0  0  0  0  0  0  0  0  0
    4.8923   -3.0612    0.0000 H   0  0  0  0  0  0  0  0  0  0  0  0
    3.8100   -5.0747    0.0000 H   0  0  0  0  0  0  0  0  0  0  0  0
    3.8100   -2.2688    0.0000 H   0  0  0  0  0  0  0  0  0  0  0  0
    2.1900   -5.0747    0.0000 H   0  0  0  0  0  0  0  0  0  0  0  0
    2.1900   -2.2688    0.0000 H   0  0  0  0  0  0  0  0  0  0  0  0
    1.3800   -3.6718    0.0000 H   0  0  0  0  0  0  0  0  0  0  0  0
  1 23  1  0  0  0  0
  1 35  1  0  0  0  0
  2 14  1  0  0  0  0
  2 15  1  0  0  0  0
  3 38  2  0  0  0  0
  4 12  1  0  0  0  0
  4 13  1  0  0  0  0
  4 16  1  0  0  0  0
  5 18  1  0  0  0  0
  5 23  1  0  0  0  0
  5 29  1  0  0  0  0
  6 20  1  0  0  0  0
  6 36  1  0  0  0  0
  6 37  1  0  0  0  0
  7 17  1  0  0  0  0
  7 23  2  0  0  0  0
  8 25  1  0  0  0  0
  8 33  1  0  0  0  0
  8 63  1  0  0  0  0
  9 24  1  0  0  0  0
  9 38  1  0  0  0  0
  9 64  1  0  0  0  0
 10 26  2  0  0  0  0
 10 33  1  0  0  0  0
 11 33  2  0  0  0  0
 11 39  1  0  0  0  0
 12 14  1  0  0  0  0
 12 47  1  0  0  0  0
 12 48  1  0  0  0  0
 13 15  1  0  0  0  0
 13 49  1  0  0  0  0
 13 50  1  0  0  0  0
 14 51  1  0  0  0  0
 14 52  1  0  0  0  0
 15 53  1  0  0  0  0
 15 54  1  0  0  0  0
 16 21  1  0  0  0  0
 16 22  2  0  0  0  0
 17 18  2  0  0  0  0
 17 19  1  0  0  0  0
 18 26  1  0  0  0  0
 19 20  2  0  0  0  0
 19 27  1  0  0  0  0
 20 24  1  0  0  0  0
 21 25  2  0  0  0  0
 21 55  1  0  0  0  0
 22 28  1  0  0  0  0
 22 56  1  0  0  0  0
 24 31  2  0  0  0  0
 25 30  1  0  0  0  0
 26 34  1  0  0  0  0
 27 32  2  0  0  0  0
 27 57  1  0  0  0  0
 28 30  2  0  0  0  0
 28 59  1  0  0  0  0
 29 35  2  0  0  0  0
 29 58  1  0  0  0  0
 30 60  1  0  0  0  0
 31 32  1  0  0  0  0
 31 61  1  0  0  0  0
 32 62  1  0  0  0  0
 34 39  2  0  0  0  0
 34 65  1  0  0  0  0
 35 66  1  0  0  0  0
 36 67  1  0  0  0  0
 36 68  1  0  0  0  0
 36 69  1  0  0  0  0
 37 70  1  0  0  0  0
 37 71  1  0  0  0  0
 37 72  1  0  0  0  0
 38 40  1  0  0  0  0
 39 73  1  0  0  0  0
 40 41  1  0  0  0  0
 40 74  1  0  0  0  0
 40 75  1  0  0  0  0
 41 42  2  0  0  0  0
 41 43  1  0  0  0  0
 42 44  1  0  0  0  0
 42 76  1  0  0  0  0
 43 45  2  0  0  0  0
 43 77  1  0  0  0  0
 44 46  2  0  0  0  0
 44 78  1  0  0  0  0
 45 46  1  0  0  0  0
 45 79  1  0  0  0  0
 46 80  1  0  0  0  0
M  END
> <PUBCHEM_COMPOUND_CID>
49830416

> <PUBCHEM_COMPOUND_CANONICALIZED>
1

> <PUBCHEM_CACTVS_COMPLEXITY>
980

> <PUBCHEM_CACTVS_HBOND_ACCEPTOR>
9

> <PUBCHEM_CACTVS_HBOND_DONOR>
2

> <PUBCHEM_CACTVS_ROTATABLE_BOND>
9

> <PUBCHEM_CACTVS_SUBSKEYS>
AAADcfB/8ABAAAAAAAAAAAAAAAAAAWLAAAA8eMECAAAWAAAB/AAAHgQQAAAADAjl3ga/0ZfMHAisAzV3dACC8K1xGrhJ2C04dJiKaPLA3dGXJAholALYyCcYiMCOAAAAQAQCACAAAACACAQAQAAAAAAAAA==

> <PUBCHEM_IUPAC_OPENEYE_NAME>
N-[2-(dimethylamino)-3-[5-[2-(3-morpholinoanilino)pyrimidin-4-yl]imidazo[2,1-b]thiazol-6-yl]phenyl]-2-phenyl-acetamide

> <PUBCHEM_IUPAC_CAS_NAME>
N-[2-(dimethylamino)-3-[5-[2-[3-(4-morpholinyl)anilino]-4-pyrimidinyl]-6-imidazo[2,1-b]thiazolyl]phenyl]-2-phenylacetamide

> <PUBCHEM_IUPAC_NAME_MARKUP>
<I>N</I>-[2-(dimethylamino)-3-[5-[2-(3-morpholin-4-ylanilino)pyrimidin-4-yl]imidazo[2,1-b][1,3]thiazol-6-yl]phenyl]-2-phenylacetamide

> <PUBCHEM_IUPAC_NAME>
N-[2-(dimethylamino)-3-[5-[2-(3-morpholin-4-ylanilino)pyrimidin-4-yl]imidazo[2,1-b][1,3]thiazol-6-yl]phenyl]-2-phenylacetamide

> <PUBCHEM_IUPAC_SYSTEMATIC_NAME>
N-[2-(dimethylamino)-3-[5-[2-[(3-morpholin-4-ylphenyl)amino]pyrimidin-4-yl]imidazo[2,1-b][1,3]thiazol-6-yl]phenyl]-2-phenyl-ethanamide

> <PUBCHEM_IUPAC_TRADITIONAL_NAME>
N-[2-(dimethylamino)-3-[5-[2-(3-morpholinoanilino)pyrimidin-4-yl]imidazo[2,1-b]thiazol-6-yl]phenyl]-2-phenyl-acetamide

> <PUBCHEM_IUPAC_INCHI>
InChI=1S/C35H34N8O2S/c1-41(2)32-27(12-7-13-28(32)38-30(44)22-24-8-4-3-5-9-24)31-33(43-18-21-46-35(43)40-31)29-14-15-36-34(39-29)37-25-10-6-11-26(23-25)42-16-19-45-20-17-42/h3-15,18,21,23H,16-17,19-20,22H2,1-2H3,(H,38,44)(H,36,37,39)

> <PUBCHEM_IUPAC_INCHIKEY>
QRWHFUYBHXDYNV-UHFFFAOYSA-N

> <PUBCHEM_XLOGP3_AA>
6

> <PUBCHEM_EXACT_MASS>
630.25254353

> <PUBCHEM_MOLECULAR_FORMULA>
C35H34N8O2S

> <PUBCHEM_MOLECULAR_WEIGHT>
630.8

> <PUBCHEM_SMILES>
CN(C)C1=C(C=CC=C1NC(=O)CC2=CC=CC=C2)C3=C(N4C=CSC4=N3)C5=NC(=NC=C5)NC6=CC(=CC=C6)N7CCOCC7

> <PUBCHEM_OPENEYE_CAN_SMILES>
CN(C)C1=C(C=CC=C1NC(=O)CC2=CC=CC=C2)C3=C(N4C=CSC4=N3)C5=NC(=NC=C5)NC6=CC(=CC=C6)N7CCOCC7

> <PUBCHEM_OPENEYE_ISO_SMILES>
CN(C)C1=C(C=CC=C1NC(=O)CC2=CC=CC=C2)C3=C(N4C=CSC4=N3)C5=NC(=NC=C5)NC6=CC(=CC=C6)N7CCOCC7

> <PUBCHEM_CACTVS_TPSA>
128

> <PUBCHEM_MONOISOTOPIC_WEIGHT>
630.25254353

> <PUBCHEM_TOTAL_CHARGE>
0

> <PUBCHEM_HEAVY_ATOM_COUNT>
46

> <PUBCHEM_ATOM_DEF_STEREO_COUNT>
0

> <PUBCHEM_ATOM_UDEF_STEREO_COUNT>
0

> <PUBCHEM_BOND_DEF_STEREO_COUNT>
0

> <PUBCHEM_BOND_UDEF_STEREO_COUNT>
0

> <PUBCHEM_ISOTOPIC_ATOM_COUNT>
0

> <PUBCHEM_COMPONENT_COUNT>
1

> <PUBCHEM_CACTVS_TAUTO_COUNT>
-1

> <PUBCHEM_COORDINATE_TYPE>
1
5
255

> <PUBCHEM_BONDANNOTATIONS>
1  23  8
1  35  8
10  26  8
10  33  8
11  33  8
11  39  8
16  21  8
16  22  8
17  18  8
19  20  8
19  27  8
20  24  8
21  25  8
22  28  8
24  31  8
25  30  8
26  34  8
27  32  8
28  30  8
29  35  8
31  32  8
34  39  8
41  42  8
41  43  8
42  44  8
43  45  8
44  46  8
45  46  8
5  18  8
5  23  8
5  29  8
7  17  8
7  23  8

$$$$
