11532676
  -OEChem-03202504392D

 56 59  0     1  0  0  0  0  0999 V2000
   10.3757   -3.5272    0.0000 Cl  0  0  0  0  0  0  0  0  0  0  0  0
    8.6553   -2.5072    0.0000 F   0  0  0  0  0  0  0  0  0  0  0  0
    5.8320   -1.8388    0.0000 O   0  0  0  0  0  0  0  0  0  0  0  0
    5.1980    2.5272    0.0000 O   0  0  0  0  0  0  0  0  0  0  0  0
    2.9659   -0.6068    0.0000 N   0  0  0  0  0  0  0  0  0  0  0  0
    5.1980   -0.4728    0.0000 N   0  0  3  0  0  0  0  0  0  0  0  0
    4.3320   -2.7048    0.0000 N   0  0  0  0  0  0  0  0  0  0  0  0
    8.6900    2.5619    0.0000 N   0  0  0  0  0  0  0  0  0  0  0  0
    8.6784   -0.5074    0.0000 N   0  0  0  0  0  0  0  0  0  0  0  0
    9.5961    1.0064    0.0000 N   0  0  0  0  0  0  0  0  0  0  0  0
    4.3320   -0.9728    0.0000 C   0  0  0  0  0  0  0  0  0  0  0  0
    3.4659   -1.4728    0.0000 C   0  0  0  0  0  0  0  0  0  0  0  0
    3.8320   -0.1068    0.0000 C   0  0  0  0  0  0  0  0  0  0  0  0
    4.8320   -1.8388    0.0000 C   0  0  0  0  0  0  0  0  0  0  0  0
    5.1980    0.5272    0.0000 C   0  0  0  0  0  0  0  0  0  0  0  0
    2.0000   -0.3479    0.0000 C   0  0  0  0  0  0  0  0  0  0  0  0
    6.0640   -0.9728    0.0000 C   0  0  0  0  0  0  0  0  0  0  0  0
    6.0640    1.0272    0.0000 C   0  0  0  0  0  0  0  0  0  0  0  0
    6.0640    2.0272    0.0000 C   0  0  0  0  0  0  0  0  0  0  0  0
    6.9300    0.5272    0.0000 C   0  0  0  0  0  0  0  0  0  0  0  0
    7.7960    1.0272    0.0000 C   0  0  0  0  0  0  0  0  0  0  0  0
    6.9300    2.5272    0.0000 C   0  0  0  0  0  0  0  0  0  0  0  0
    7.7960    2.0272    0.0000 C   0  0  0  0  0  0  0  0  0  0  0  0
    8.6900    0.4926    0.0000 C   0  0  0  0  0  0  0  0  0  0  0  0
    5.1980    3.5272    0.0000 C   0  0  0  0  0  0  0  0  0  0  0  0
    9.5961    2.0480    0.0000 C   0  0  0  0  0  0  0  0  0  0  0  0
    9.5386   -1.0174    0.0000 C   0  0  0  0  0  0  0  0  0  0  0  0
    9.5270   -2.0173    0.0000 C   0  0  0  0  0  0  0  0  0  0  0  0
   10.4104   -0.5274    0.0000 C   0  0  0  0  0  0  0  0  0  0  0  0
   10.3872   -2.5273    0.0000 C   0  0  0  0  0  0  0  0  0  0  0  0
   11.2706   -1.0374    0.0000 C   0  0  0  0  0  0  0  0  0  0  0  0
   11.2590   -2.0373    0.0000 C   0  0  0  0  0  0  0  0  0  0  0  0
    2.9290   -1.7828    0.0000 H   0  0  0  0  0  0  0  0  0  0  0  0
    3.7759   -2.0097    0.0000 H   0  0  0  0  0  0  0  0  0  0  0  0
    4.3689    0.2032    0.0000 H   0  0  0  0  0  0  0  0  0  0  0  0
    3.5220    0.4302    0.0000 H   0  0  0  0  0  0  0  0  0  0  0  0
    4.9859    1.1098    0.0000 H   0  0  0  0  0  0  0  0  0  0  0  0
    4.5874    0.4195    0.0000 H   0  0  0  0  0  0  0  0  0  0  0  0
    2.1605    0.2509    0.0000 H   0  0  0  0  0  0  0  0  0  0  0  0
    1.4011   -0.1875    0.0000 H   0  0  0  0  0  0  0  0  0  0  0  0
    1.8395   -0.9468    0.0000 H   0  0  0  0  0  0  0  0  0  0  0  0
    5.7540   -1.5097    0.0000 H   0  0  0  0  0  0  0  0  0  0  0  0
    6.6009   -1.2828    0.0000 H   0  0  0  0  0  0  0  0  0  0  0  0
    6.3740   -0.4359    0.0000 H   0  0  0  0  0  0  0  0  0  0  0  0
    4.6419   -3.2418    0.0000 H   0  0  0  0  0  0  0  0  0  0  0  0
    3.7120   -2.7048    0.0000 H   0  0  0  0  0  0  0  0  0  0  0  0
    6.9300   -0.0928    0.0000 H   0  0  0  0  0  0  0  0  0  0  0  0
    6.9300    3.1472    0.0000 H   0  0  0  0  0  0  0  0  0  0  0  0
    8.1380   -0.8112    0.0000 H   0  0  0  0  0  0  0  0  0  0  0  0
    5.8180    3.5272    0.0000 H   0  0  0  0  0  0  0  0  0  0  0  0
    5.1980    4.1472    0.0000 H   0  0  0  0  0  0  0  0  0  0  0  0
    4.5780    3.5272    0.0000 H   0  0  0  0  0  0  0  0  0  0  0  0
   10.1318    2.3601    0.0000 H   0  0  0  0  0  0  0  0  0  0  0  0
   10.4175    0.0925    0.0000 H   0  0  0  0  0  0  0  0  0  0  0  0
   11.8110   -0.7336    0.0000 H   0  0  0  0  0  0  0  0  0  0  0  0
   11.7923   -2.3535    0.0000 H   0  0  0  0  0  0  0  0  0  0  0  0
  1 30  1  0  0  0  0
  2 28  1  0  0  0  0
  3 14  2  0  0  0  0
  4 19  1  0  0  0  0
  4 25  1  0  0  0  0
  5 12  1  0  0  0  0
  5 13  1  0  0  0  0
  5 16  1  0  0  0  0
  6 11  1  0  0  0  0
  6 15  1  0  0  0  0
  6 17  1  0  0  0  0
  7 14  1  0  0  0  0
  7 45  1  0  0  0  0
  7 46  1  0  0  0  0
  8 23  1  0  0  0  0
  8 26  2  0  0  0  0
  9 24  1  0  0  0  0
  9 27  1  0  0  0  0
  9 49  1  0  0  0  0
 10 24  2  0  0  0  0
 10 26  1  0  0  0  0
 11 12  1  0  0  0  0
 11 13  1  0  0  0  0
 11 14  1  0  0  0  0
 12 33  1  0  0  0  0
 12 34  1  0  0  0  0
 13 35  1  0  0  0  0
 13 36  1  0  0  0  0
 15 18  1  0  0  0  0
 15 37  1  0  0  0  0
 15 38  1  0  0  0  0
 16 39  1  0  0  0  0
 16 40  1  0  0  0  0
 16 41  1  0  0  0  0
 17 42  1  0  0  0  0
 17 43  1  0  0  0  0
 17 44  1  0  0  0  0
 18 19  1  0  0  0  0
 18 20  2  0  0  0  0
 19 22  2  0  0  0  0
 20 21  1  0  0  0  0
 20 47  1  0  0  0  0
 21 23  2  0  0  0  0
 21 24  1  0  0  0  0
 22 23  1  0  0  0  0
 22 48  1  0  0  0  0
 25 50  1  0  0  0  0
 25 51  1  0  0  0  0
 25 52  1  0  0  0  0
 26 53  1  0  0  0  0
 27 28  2  0  0  0  0
 27 29  1  0  0  0  0
 28 30  1  0  0  0  0
 29 31  2  0  0  0  0
 29 54  1  0  0  0  0
 30 32  2  0  0  0  0
 31 32  1  0  0  0  0
 31 55  1  0  0  0  0
 32 56  1  0  0  0  0
M  END
> <PUBCHEM_COMPOUND_CID>
11532676

> <PUBCHEM_COMPOUND_CANONICALIZED>
1

> <PUBCHEM_CACTVS_COMPLEXITY>
668

> <PUBCHEM_CACTVS_HBOND_ACCEPTOR>
8

> <PUBCHEM_CACTVS_HBOND_DONOR>
2

> <PUBCHEM_CACTVS_ROTATABLE_BOND>
7

> <PUBCHEM_CACTVS_SUBSKEYS>
AAADceB7sQAEAAAAAAAAAAAAAABYAAAAAAA8YIAAAAAAAACx9AAAHwIQAAAADI7Bni439vfIFACoAydzdACCiCkxJ6AJ2CG+bpiMburF+/uUNChu0BvI6CeQ0GMOKAACAgIKAABQAAQEBBQAAAAAAAAAAA==

> <PUBCHEM_IUPAC_OPENEYE_NAME>
3-[[4-(3-chloro-2-fluoro-anilino)-7-methoxy-quinazolin-6-yl]methyl-methyl-amino]-1-methyl-azetidine-3-carboxamide

> <PUBCHEM_IUPAC_CAS_NAME>
3-[[4-(3-chloro-2-fluoroanilino)-7-methoxy-6-quinazolinyl]methyl-methylamino]-1-methyl-3-azetidinecarboxamide

> <PUBCHEM_IUPAC_NAME_MARKUP>
3-[[4-(3-chloro-2-fluoroanilino)-7-methoxyquinazolin-6-yl]methyl-methylamino]-1-methylazetidine-3-carboxamide

> <PUBCHEM_IUPAC_NAME>
3-[[4-(3-chloro-2-fluoroanilino)-7-methoxyquinazolin-6-yl]methyl-methylamino]-1-methylazetidine-3-carboxamide

> <PUBCHEM_IUPAC_SYSTEMATIC_NAME>
3-[[4-[(3-chloranyl-2-fluoranyl-phenyl)amino]-7-methoxy-quinazolin-6-yl]methyl-methyl-amino]-1-methyl-azetidine-3-carboxamide

> <PUBCHEM_IUPAC_TRADITIONAL_NAME>
3-[[4-(3-chloro-2-fluoro-anilino)-7-methoxy-quinazolin-6-yl]methyl-methyl-amino]-1-methyl-azetidine-3-carboxamide

> <PUBCHEM_IUPAC_INCHI>
InChI=1S/C22H24ClFN6O2/c1-29-10-22(11-29,21(25)31)30(2)9-13-7-14-17(8-18(13)32-3)26-12-27-20(14)28-16-6-4-5-15(23)19(16)24/h4-8,12H,9-11H2,1-3H3,(H2,25,31)(H,26,27,28)

> <PUBCHEM_IUPAC_INCHIKEY>
SGSZBDPHZWMJPU-UHFFFAOYSA-N

> <PUBCHEM_XLOGP3_AA>
2.6

> <PUBCHEM_EXACT_MASS>
458.1633299

> <PUBCHEM_MOLECULAR_FORMULA>
C22H24ClFN6O2

> <PUBCHEM_MOLECULAR_WEIGHT>
458.9

> <PUBCHEM_SMILES>
CN1CC(C1)(C(=O)N)N(C)CC2=CC3=C(C=C2OC)N=CN=C3NC4=C(C(=CC=C4)Cl)F

> <PUBCHEM_OPENEYE_CAN_SMILES>
CN1CC(C1)(C(=O)N)N(C)CC2=CC3=C(C=C2OC)N=CN=C3NC4=C(C(=CC=C4)Cl)F

> <PUBCHEM_OPENEYE_ISO_SMILES>
CN1CC(C1)(C(=O)N)N(C)CC2=CC3=C(C=C2OC)N=CN=C3NC4=C(C(=CC=C4)Cl)F

> <PUBCHEM_CACTVS_TPSA>
96.6

> <PUBCHEM_MONOISOTOPIC_WEIGHT>
458.1633299

> <PUBCHEM_TOTAL_CHARGE>
0

> <PUBCHEM_HEAVY_ATOM_COUNT>
32

> <PUBCHEM_ATOM_DEF_STEREO_COUNT>
0

> <PUBCHEM_ATOM_UDEF_STEREO_COUNT>
0

> <PUBCHEM_BOND_DEF_STEREO_COUNT>
0

> <PUBCHEM_BOND_UDEF_STEREO_COUNT>
0

> <PUBCHEM_ISOTOPIC_ATOM_COUNT>
0

> <PUBCHEM_COMPONENT_COUNT>
1

> <PUBCHEM_CACTVS_TAUTO_COUNT>
-1

> <PUBCHEM_COORDINATE_TYPE>
1
5
255

> <PUBCHEM_BONDANNOTATIONS>
10  24  8
10  26  8
18  19  8
18  20  8
19  22  8
20  21  8
21  23  8
21  24  8
22  23  8
27  28  8
27  29  8
28  30  8
29  31  8
30  32  8
31  32  8
8  23  8
8  26  8

$$$$
