49830285
  -OEChem-03202504302D

 25 27  0     0  0  0  0  0  0999 V2000
    7.2566    1.4234    0.0000 Cl  0  0  0  0  0  0  0  0  0  0  0  0
    4.6783   -2.4996    0.0000 N   0  0  0  0  0  0  0  0  0  0  0  0
    2.8660   -2.6948    0.0000 N   0  0  0  0  0  0  0  0  0  0  0  0
    4.3211    0.8047    0.0000 N   0  0  0  0  0  0  0  0  0  0  0  0
    5.6103    1.9615    0.0000 N   0  0  0  0  0  0  0  0  0  0  0  0
    3.9639    2.4996    0.0000 N   0  0  0  0  0  0  0  0  0  0  0  0
    4.6783   -0.8901    0.0000 C   0  0  0  0  0  0  0  0  0  0  0  0
    3.7320   -1.1948    0.0000 C   0  0  0  0  0  0  0  0  0  0  0  0
    3.7320   -2.1948    0.0000 C   0  0  0  0  0  0  0  0  0  0  0  0
    5.2619   -1.6948    0.0000 C   0  0  0  0  0  0  0  0  0  0  0  0
    4.9889    0.0604    0.0000 C   0  0  0  0  0  0  0  0  0  0  0  0
    2.8660   -0.6948    0.0000 C   0  0  0  0  0  0  0  0  0  0  0  0
    5.9674    0.2666    0.0000 C   0  0  0  0  0  0  0  0  0  0  0  0
    2.0000   -1.1948    0.0000 C   0  0  0  0  0  0  0  0  0  0  0  0
    2.0000   -2.1948    0.0000 C   0  0  0  0  0  0  0  0  0  0  0  0
    6.2781    1.2172    0.0000 C   0  0  0  0  0  0  0  0  0  0  0  0
    4.6318    1.7552    0.0000 C   0  0  0  0  0  0  0  0  0  0  0  0
    5.8819   -1.6948    0.0000 H   0  0  0  0  0  0  0  0  0  0  0  0
    4.8709   -3.0889    0.0000 H   0  0  0  0  0  0  0  0  0  0  0  0
    2.8660   -0.0748    0.0000 H   0  0  0  0  0  0  0  0  0  0  0  0
    6.3815   -0.1948    0.0000 H   0  0  0  0  0  0  0  0  0  0  0  0
    1.4631   -0.8848    0.0000 H   0  0  0  0  0  0  0  0  0  0  0  0
    1.4631   -2.5048    0.0000 H   0  0  0  0  0  0  0  0  0  0  0  0
    4.1565    3.0889    0.0000 H   0  0  0  0  0  0  0  0  0  0  0  0
    3.3572    2.3717    0.0000 H   0  0  0  0  0  0  0  0  0  0  0  0
  1 16  1  0  0  0  0
  2  9  1  0  0  0  0
  2 10  1  0  0  0  0
  2 19  1  0  0  0  0
  3  9  1  0  0  0  0
  3 15  2  0  0  0  0
  4 11  1  0  0  0  0
  4 17  2  0  0  0  0
  5 16  2  0  0  0  0
  5 17  1  0  0  0  0
  6 17  1  0  0  0  0
  6 24  1  0  0  0  0
  6 25  1  0  0  0  0
  7  8  1  0  0  0  0
  7 10  2  0  0  0  0
  7 11  1  0  0  0  0
  8  9  2  0  0  0  0
  8 12  1  0  0  0  0
 10 18  1  0  0  0  0
 11 13  2  0  0  0  0
 12 14  2  0  0  0  0
 12 20  1  0  0  0  0
 13 16  1  0  0  0  0
 13 21  1  0  0  0  0
 14 15  1  0  0  0  0
 14 22  1  0  0  0  0
 15 23  1  0  0  0  0
M  END
> <PUBCHEM_COMPOUND_CID>
49830285

> <PUBCHEM_COMPOUND_CANONICALIZED>
1

> <PUBCHEM_CACTVS_COMPLEXITY>
277

> <PUBCHEM_CACTVS_HBOND_ACCEPTOR>
4

> <PUBCHEM_CACTVS_HBOND_DONOR>
2

> <PUBCHEM_CACTVS_ROTATABLE_BOND>
1

> <PUBCHEM_CACTVS_SUBSKEYS>
AAADccBzgAAEAAAAAAAAAAAAAAAAAWAAAAAsWAAAAAAAAFgB/gAAHAIQAAAADArBHyQ9sN7JkACgAzZnZACCgCmxB6AJ2aA4ZpiIKOLB29GEJAhogALIyCcQgIAOgAAAAAAAAAAAAAAAAAAAAAAAAAAAAA==

> <PUBCHEM_IUPAC_OPENEYE_NAME>
4-chloro-6-(1H-pyrrolo[2,3-b]pyridin-3-yl)pyrimidin-2-amine

> <PUBCHEM_IUPAC_CAS_NAME>
4-chloro-6-(1H-pyrrolo[2,3-b]pyridin-3-yl)-2-pyrimidinamine

> <PUBCHEM_IUPAC_NAME_MARKUP>
4-chloro-6-(1<I>H</I>-pyrrolo[2,3-b]pyridin-3-yl)pyrimidin-2-amine

> <PUBCHEM_IUPAC_NAME>
4-chloro-6-(1H-pyrrolo[2,3-b]pyridin-3-yl)pyrimidin-2-amine

> <PUBCHEM_IUPAC_SYSTEMATIC_NAME>
4-chloranyl-6-(1H-pyrrolo[2,3-b]pyridin-3-yl)pyrimidin-2-amine

> <PUBCHEM_IUPAC_TRADITIONAL_NAME>
[4-chloro-6-(1H-pyrrolo[2,3-b]pyridin-3-yl)pyrimidin-2-yl]amine

> <PUBCHEM_IUPAC_INCHI>
InChI=1S/C11H8ClN5/c12-9-4-8(16-11(13)17-9)7-5-15-10-6(7)2-1-3-14-10/h1-5H,(H,14,15)(H2,13,16,17)

> <PUBCHEM_IUPAC_INCHIKEY>
URNZTLZSAVLTIZ-UHFFFAOYSA-N

> <PUBCHEM_XLOGP3_AA>
1.9

> <PUBCHEM_EXACT_MASS>
245.0468230

> <PUBCHEM_MOLECULAR_FORMULA>
C11H8ClN5

> <PUBCHEM_MOLECULAR_WEIGHT>
245.67

> <PUBCHEM_SMILES>
C1=CC2=C(NC=C2C3=CC(=NC(=N3)N)Cl)N=C1

> <PUBCHEM_OPENEYE_CAN_SMILES>
C1=CC2=C(NC=C2C3=CC(=NC(=N3)N)Cl)N=C1

> <PUBCHEM_OPENEYE_ISO_SMILES>
C1=CC2=C(NC=C2C3=CC(=NC(=N3)N)Cl)N=C1

> <PUBCHEM_CACTVS_TPSA>
80.5

> <PUBCHEM_MONOISOTOPIC_WEIGHT>
245.0468230

> <PUBCHEM_TOTAL_CHARGE>
0

> <PUBCHEM_HEAVY_ATOM_COUNT>
17

> <PUBCHEM_ATOM_DEF_STEREO_COUNT>
0

> <PUBCHEM_ATOM_UDEF_STEREO_COUNT>
0

> <PUBCHEM_BOND_DEF_STEREO_COUNT>
0

> <PUBCHEM_BOND_UDEF_STEREO_COUNT>
0

> <PUBCHEM_ISOTOPIC_ATOM_COUNT>
0

> <PUBCHEM_COMPONENT_COUNT>
1

> <PUBCHEM_CACTVS_TAUTO_COUNT>
-1

> <PUBCHEM_COORDINATE_TYPE>
1
5
255

> <PUBCHEM_BONDANNOTATIONS>
11  13  8
12  14  8
13  16  8
14  15  8
2  10  8
2  9  8
3  15  8
3  9  8
4  11  8
4  17  8
5  16  8
5  17  8
7  10  8
7  8  8
8  12  8
8  9  8

$$$$
