44137946
  -OEChem-03202500332D

 60 64  0     1  0  0  0  0  0999 V2000
    6.5572   -0.4311    0.0000 S   0  0  0  0  0  0  0  0  0  0  0  0
    3.1830   -1.2149    0.0000 O   0  0  0  0  0  0  0  0  0  0  0  0
    2.7304    0.7332    0.0000 O   0  0  0  0  0  0  0  0  0  0  0  0
    6.2662   -1.3878    0.0000 O   0  0  0  0  0  0  0  0  0  0  0  0
    6.8483    0.5256    0.0000 O   0  0  0  0  0  0  0  0  0  0  0  0
   10.8956   -1.0522    0.0000 O   0  0  0  0  0  0  0  0  0  0  0  0
    5.6005   -0.1400    0.0000 N   0  0  3  0  0  0  0  0  0  0  0  0
    7.5139   -0.7221    0.0000 N   0  0  0  0  0  0  0  0  0  0  0  0
   13.0096    1.6789    0.0000 N   0  0  0  0  0  0  0  0  0  0  0  0
   15.7427   -1.4080    0.0000 N   0  0  0  0  0  0  0  0  0  0  0  0
   15.0597   -2.1384    0.0000 N   0  0  0  0  0  0  0  0  0  0  0  0
    3.9134   -0.5319    0.0000 C   0  0  2  0  0  0  0  0  0  0  0  0
    4.8701   -0.8230    0.0000 C   0  0  0  0  0  0  0  0  0  0  0  0
    3.6871    0.4422    0.0000 C   0  0  0  0  0  0  0  0  0  0  0  0
    2.2263   -0.9238    0.0000 C   0  0  0  0  0  0  0  0  0  0  0  0
    2.0000    0.0503    0.0000 C   0  0  0  0  0  0  0  0  0  0  0  0
    5.3743    0.8341    0.0000 C   0  0  0  0  0  0  0  0  0  0  0  0
    8.2444   -0.0392    0.0000 C   0  0  0  0  0  0  0  0  0  0  0  0
    9.9946    0.3817    0.0000 C   0  0  0  0  0  0  0  0  0  0  0  0
    9.2421   -0.3385    0.0000 C   0  0  0  0  0  0  0  0  0  0  0  0
    9.7721    1.3566    0.0000 C   0  0  0  0  0  0  0  0  0  0  0  0
    8.0126    0.9764    0.0000 C   0  0  0  0  0  0  0  0  0  0  0  0
   11.7965    0.3817    0.0000 C   0  0  0  0  0  0  0  0  0  0  0  0
   10.8956   -0.0522    0.0000 C   0  0  0  0  0  0  0  0  0  0  0  0
    8.7816    1.6789    0.0000 C   0  0  0  0  0  0  0  0  0  0  0  0
   12.0191    1.3566    0.0000 C   0  0  0  0  0  0  0  0  0  0  0  0
   10.3956    2.1384    0.0000 C   0  0  0  0  0  0  0  0  0  0  0  0
   12.5491   -0.3385    0.0000 C   0  0  0  0  0  0  0  0  0  0  0  0
   11.3956    2.1384    0.0000 C   0  0  0  0  0  0  0  0  0  0  0  0
   13.5468   -0.0392    0.0000 C   0  0  0  0  0  0  0  0  0  0  0  0
   14.2772   -0.7222    0.0000 C   0  0  0  0  0  0  0  0  0  0  0  0
   13.7786    0.9763    0.0000 C   0  0  0  0  0  0  0  0  0  0  0  0
   15.2591   -0.5327    0.0000 C   0  0  0  0  0  0  0  0  0  0  0  0
   14.1540   -1.7146    0.0000 C   0  0  0  0  0  0  0  0  0  0  0  0
   16.7351   -1.5312    0.0000 C   0  0  0  0  0  0  0  0  0  0  0  0
    4.0537   -1.1358    0.0000 H   0  0  0  0  0  0  0  0  0  0  0  0
    4.5894   -1.3758    0.0000 H   0  0  0  0  0  0  0  0  0  0  0  0
    5.3658   -1.1954    0.0000 H   0  0  0  0  0  0  0  0  0  0  0  0
    4.3062    0.4755    0.0000 H   0  0  0  0  0  0  0  0  0  0  0  0
    3.7619    1.0576    0.0000 H   0  0  0  0  0  0  0  0  0  0  0  0
    1.6072   -0.9571    0.0000 H   0  0  0  0  0  0  0  0  0  0  0  0
    2.1515   -1.5393    0.0000 H   0  0  0  0  0  0  0  0  0  0  0  0
    1.6616    0.5698    0.0000 H   0  0  0  0  0  0  0  0  0  0  0  0
    1.4296   -0.1928    0.0000 H   0  0  0  0  0  0  0  0  0  0  0  0
    5.9782    0.9744    0.0000 H   0  0  0  0  0  0  0  0  0  0  0  0
    5.2340    1.4380    0.0000 H   0  0  0  0  0  0  0  0  0  0  0  0
    4.7703    0.6938    0.0000 H   0  0  0  0  0  0  0  0  0  0  0  0
    7.6542   -1.3261    0.0000 H   0  0  0  0  0  0  0  0  0  0  0  0
    9.3870   -0.9413    0.0000 H   0  0  0  0  0  0  0  0  0  0  0  0
    7.4208    1.1614    0.0000 H   0  0  0  0  0  0  0  0  0  0  0  0
    8.6506    2.2849    0.0000 H   0  0  0  0  0  0  0  0  0  0  0  0
   10.1266    2.6970    0.0000 H   0  0  0  0  0  0  0  0  0  0  0  0
   12.4041   -0.9413    0.0000 H   0  0  0  0  0  0  0  0  0  0  0  0
   11.6646    2.6970    0.0000 H   0  0  0  0  0  0  0  0  0  0  0  0
   14.3703    1.1614    0.0000 H   0  0  0  0  0  0  0  0  0  0  0  0
   15.5219    0.0288    0.0000 H   0  0  0  0  0  0  0  0  0  0  0  0
   13.6113   -2.0144    0.0000 H   0  0  0  0  0  0  0  0  0  0  0  0
   16.6587   -2.1465    0.0000 H   0  0  0  0  0  0  0  0  0  0  0  0
   17.3504   -1.6076    0.0000 H   0  0  0  0  0  0  0  0  0  0  0  0
   16.8115   -0.9160    0.0000 H   0  0  0  0  0  0  0  0  0  0  0  0
  1  4  2  0  0  0  0
  1  5  2  0  0  0  0
  1  7  1  0  0  0  0
  1  8  1  0  0  0  0
  2 12  1  0  0  0  0
  2 15  1  0  0  0  0
  3 14  1  0  0  0  0
  3 16  1  0  0  0  0
  6 24  2  0  0  0  0
  7 13  1  0  0  0  0
  7 17  1  0  0  0  0
  8 18  1  0  0  0  0
  8 48  1  0  0  0  0
  9 26  1  0  0  0  0
  9 32  2  0  0  0  0
 10 11  1  0  0  0  0
 10 33  1  0  0  0  0
 10 35  1  0  0  0  0
 11 34  2  0  0  0  0
 12 13  1  1  0  0  0
 12 14  1  0  0  0  0
 12 36  1  0  0  0  0
 13 37  1  0  0  0  0
 13 38  1  0  0  0  0
 14 39  1  0  0  0  0
 14 40  1  0  0  0  0
 15 16  1  0  0  0  0
 15 41  1  0  0  0  0
 15 42  1  0  0  0  0
 16 43  1  0  0  0  0
 16 44  1  0  0  0  0
 17 45  1  0  0  0  0
 17 46  1  0  0  0  0
 17 47  1  0  0  0  0
 18 20  2  0  0  0  0
 18 22  1  0  0  0  0
 19 20  1  0  0  0  0
 19 21  2  0  0  0  0
 19 24  1  0  0  0  0
 20 49  1  0  0  0  0
 21 25  1  0  0  0  0
 21 27  1  0  0  0  0
 22 25  2  0  0  0  0
 22 50  1  0  0  0  0
 23 24  1  0  0  0  0
 23 26  2  0  0  0  0
 23 28  1  0  0  0  0
 25 51  1  0  0  0  0
 26 29  1  0  0  0  0
 27 29  2  0  0  0  0
 27 52  1  0  0  0  0
 28 30  2  0  0  0  0
 28 53  1  0  0  0  0
 29 54  1  0  0  0  0
 30 31  1  0  0  0  0
 30 32  1  0  0  0  0
 31 33  2  0  0  0  0
 31 34  1  0  0  0  0
 32 55  1  0  0  0  0
 33 56  1  0  0  0  0
 34 57  1  0  0  0  0
 35 58  1  0  0  0  0
 35 59  1  0  0  0  0
 35 60  1  0  0  0  0
M  END
> <PUBCHEM_COMPOUND_CID>
44137946

> <PUBCHEM_COMPOUND_CANONICALIZED>
1

> <PUBCHEM_CACTVS_COMPLEXITY>
895

> <PUBCHEM_CACTVS_HBOND_ACCEPTOR>
9

> <PUBCHEM_CACTVS_HBOND_DONOR>
1

> <PUBCHEM_CACTVS_ROTATABLE_BOND>
6

> <PUBCHEM_CACTVS_SUBSKEYS>
AAADceB7uABAAAAAAAAAAAAAAAAAAWAAAAA8SIAABAAAAAAB8AAAHgAYQAAADBzhngY+wJJIFACqA7R3RDCShCA1giAY2CE4ZNgLIPrA1dGHpYhimADaycccicCOiAAAQAAQAAAQAACAACAAAAAAAAAAAA==

> <PUBCHEM_IUPAC_OPENEYE_NAME>
14-[[[(2R)-1,4-dioxan-2-yl]methyl-methyl-sulfamoyl]amino]-5-(1-methylpyrazol-4-yl)-2-oxo-7-azatricyclo[9.4.0.03,8]pentadeca-1(11),3(8),4,6,9,12,14-heptaene

> <PUBCHEM_IUPAC_CAS_NAME>
14-[[[(2R)-1,4-dioxan-2-yl]methyl-methylsulfamoyl]amino]-5-(1-methyl-4-pyrazolyl)-2-oxo-7-azatricyclo[9.4.0.03,8]pentadeca-1(11),3(8),4,6,9,12,14-heptaene

> <PUBCHEM_IUPAC_NAME_MARKUP>
14-[[[(2<I>R</I>)-1,4-dioxan-2-yl]methyl-methylsulfamoyl]amino]-5-(1-methylpyrazol-4-yl)-2-oxo-7-azatricyclo[9.4.0.0<SUP>3,8</SUP>]pentadeca-1(11),3(8),4,6,9,12,14-heptaene

> <PUBCHEM_IUPAC_NAME>
14-[[[(2R)-1,4-dioxan-2-yl]methyl-methylsulfamoyl]amino]-5-(1-methylpyrazol-4-yl)-2-oxo-7-azatricyclo[9.4.0.03,8]pentadeca-1(11),3(8),4,6,9,12,14-heptaene

> <PUBCHEM_IUPAC_SYSTEMATIC_NAME>
14-[[[(2R)-1,4-dioxan-2-yl]methyl-methyl-sulfamoyl]amino]-5-(1-methylpyrazol-4-yl)-2-oxidanylidene-7-azatricyclo[9.4.0.03,8]pentadeca-1(11),3(8),4,6,9,12,14-heptaene

> <PUBCHEM_IUPAC_TRADITIONAL_NAME>
14-[[[(2R)-1,4-dioxan-2-yl]methyl-methyl-sulfamoyl]amino]-2-keto-5-(1-methylpyrazol-4-yl)-7-azatricyclo[9.4.0.03,8]pentadeca-1(11),3(8),4,6,9,12,14-heptaene

> <PUBCHEM_IUPAC_INCHI>
InChI=1S/C24H25N5O5S/c1-28-13-18(12-26-28)17-9-22-23(25-11-17)6-4-16-3-5-19(10-21(16)24(22)30)27-35(31,32)29(2)14-20-15-33-7-8-34-20/h3-6,9-13,20,27H,7-8,14-15H2,1-2H3/t20-/m1/s1

> <PUBCHEM_IUPAC_INCHIKEY>
JGEBLDKNWBUGRZ-HXUWFJFHSA-N

> <PUBCHEM_XLOGP3_AA>
1.2

> <PUBCHEM_EXACT_MASS>
495.15764009

> <PUBCHEM_MOLECULAR_FORMULA>
C24H25N5O5S

> <PUBCHEM_MOLECULAR_WEIGHT>
495.6

> <PUBCHEM_SMILES>
CN1C=C(C=N1)C2=CC3=C(C=CC4=C(C3=O)C=C(C=C4)NS(=O)(=O)N(C)C[C@@H]5COCCO5)N=C2

> <PUBCHEM_OPENEYE_CAN_SMILES>
CN1C=C(C=N1)C2=CC3=C(C=CC4=C(C3=O)C=C(C=C4)NS(=O)(=O)N(C)CC5COCCO5)N=C2

> <PUBCHEM_OPENEYE_ISO_SMILES>
CN1C=C(C=N1)C2=CC3=C(C=CC4=C(C3=O)C=C(C=C4)NS(=O)(=O)N(C)C[C@@H]5COCCO5)N=C2

> <PUBCHEM_CACTVS_TPSA>
124

> <PUBCHEM_MONOISOTOPIC_WEIGHT>
495.15764009

> <PUBCHEM_TOTAL_CHARGE>
0

> <PUBCHEM_HEAVY_ATOM_COUNT>
35

> <PUBCHEM_ATOM_DEF_STEREO_COUNT>
1

> <PUBCHEM_ATOM_UDEF_STEREO_COUNT>
0

> <PUBCHEM_BOND_DEF_STEREO_COUNT>
0

> <PUBCHEM_BOND_UDEF_STEREO_COUNT>
0

> <PUBCHEM_ISOTOPIC_ATOM_COUNT>
0

> <PUBCHEM_COMPONENT_COUNT>
1

> <PUBCHEM_CACTVS_TAUTO_COUNT>
-1

> <PUBCHEM_COORDINATE_TYPE>
1
5
255

> <PUBCHEM_BONDANNOTATIONS>
10  11  8
10  33  8
11  34  8
12  13  5
18  20  8
18  22  8
19  20  8
19  21  8
19  24  8
21  25  8
21  27  8
22  25  8
23  24  8
23  26  8
23  28  8
26  29  8
27  29  8
28  30  8
30  32  8
31  33  8
31  34  8
9  26  8
9  32  8

$$$$
