16007116
  -OEChem-03202505532D

 43 44  0     0  0  0  0  0  0999 V2000
    2.8660    1.0950    0.0000 Cl  0  0  0  0  0  0  0  0  0  0  0  0
   11.5263    1.0950    0.0000 S   0  0  0  0  0  0  0  0  0  0  0  0
   12.0263    0.2290    0.0000 O   0  0  0  0  0  0  0  0  0  0  0  0
   11.0263    1.9610    0.0000 O   0  0  0  0  0  0  0  0  0  0  0  0
    2.8660   -0.9050    0.0000 O   0  0  0  0  0  0  0  0  0  0  0  0
    6.3301   -1.9050    0.0000 O   0  0  0  0  0  0  0  0  0  0  0  0
    7.1962   -0.4050    0.0000 N   0  0  0  0  0  0  0  0  0  0  0  0
    4.5981   -0.9050    0.0000 N   0  0  0  0  0  0  0  0  0  0  0  0
    4.5981    2.0950    0.0000 N   0  0  0  0  0  0  0  0  0  0  0  0
    8.9282   -0.4050    0.0000 C   0  0  0  0  0  0  0  0  0  0  0  0
   10.6603    0.5950    0.0000 C   0  0  0  0  0  0  0  0  0  0  0  0
    8.0622   -0.9050    0.0000 C   0  0  0  0  0  0  0  0  0  0  0  0
    8.9282    0.5950    0.0000 C   0  0  0  0  0  0  0  0  0  0  0  0
    9.7942   -0.9050    0.0000 C   0  0  0  0  0  0  0  0  0  0  0  0
    9.7942    1.0950    0.0000 C   0  0  0  0  0  0  0  0  0  0  0  0
   10.6603   -0.4050    0.0000 C   0  0  0  0  0  0  0  0  0  0  0  0
   12.3923    1.5950    0.0000 C   0  0  0  0  0  0  0  0  0  0  0  0
    6.3301   -0.9050    0.0000 C   0  0  0  0  0  0  0  0  0  0  0  0
    5.4641   -0.4050    0.0000 C   0  0  0  0  0  0  0  0  0  0  0  0
    5.4641    0.5950    0.0000 C   0  0  0  0  0  0  0  0  0  0  0  0
    4.5981    1.0950    0.0000 C   0  0  0  0  0  0  0  0  0  0  0  0
    3.7320   -0.4050    0.0000 C   0  0  0  0  0  0  0  0  0  0  0  0
    3.7320    0.5950    0.0000 C   0  0  0  0  0  0  0  0  0  0  0  0
    2.8660   -1.9050    0.0000 C   0  0  0  0  0  0  0  0  0  0  0  0
    2.0000   -2.4050    0.0000 C   0  0  0  0  0  0  0  0  0  0  0  0
    7.6636   -1.3800    0.0000 H   0  0  0  0  0  0  0  0  0  0  0  0
    8.4607   -1.3800    0.0000 H   0  0  0  0  0  0  0  0  0  0  0  0
    8.3913    0.9050    0.0000 H   0  0  0  0  0  0  0  0  0  0  0  0
    9.7942   -1.5250    0.0000 H   0  0  0  0  0  0  0  0  0  0  0  0
    9.7942    1.7150    0.0000 H   0  0  0  0  0  0  0  0  0  0  0  0
   11.1972   -0.7150    0.0000 H   0  0  0  0  0  0  0  0  0  0  0  0
    7.1962    0.2150    0.0000 H   0  0  0  0  0  0  0  0  0  0  0  0
   12.7023    1.0581    0.0000 H   0  0  0  0  0  0  0  0  0  0  0  0
   12.9292    1.9050    0.0000 H   0  0  0  0  0  0  0  0  0  0  0  0
   12.0823    2.1319    0.0000 H   0  0  0  0  0  0  0  0  0  0  0  0
    6.0010    0.9050    0.0000 H   0  0  0  0  0  0  0  0  0  0  0  0
    3.0781   -2.4876    0.0000 H   0  0  0  0  0  0  0  0  0  0  0  0
    3.4766   -1.7973    0.0000 H   0  0  0  0  0  0  0  0  0  0  0  0
    5.1350    2.4050    0.0000 H   0  0  0  0  0  0  0  0  0  0  0  0
    4.0611    2.4050    0.0000 H   0  0  0  0  0  0  0  0  0  0  0  0
    1.6900   -1.8681    0.0000 H   0  0  0  0  0  0  0  0  0  0  0  0
    1.4631   -2.7150    0.0000 H   0  0  0  0  0  0  0  0  0  0  0  0
    2.3100   -2.9419    0.0000 H   0  0  0  0  0  0  0  0  0  0  0  0
  1 23  1  0  0  0  0
  2  3  2  0  0  0  0
  2  4  2  0  0  0  0
  2 11  1  0  0  0  0
  2 17  1  0  0  0  0
  5 22  1  0  0  0  0
  5 24  1  0  0  0  0
  6 18  2  0  0  0  0
  7 12  1  0  0  0  0
  7 18  1  0  0  0  0
  7 32  1  0  0  0  0
  8 19  2  0  0  0  0
  8 22  1  0  0  0  0
  9 21  1  0  0  0  0
  9 39  1  0  0  0  0
  9 40  1  0  0  0  0
 10 12  1  0  0  0  0
 10 13  2  0  0  0  0
 10 14  1  0  0  0  0
 11 15  2  0  0  0  0
 11 16  1  0  0  0  0
 12 26  1  0  0  0  0
 12 27  1  0  0  0  0
 13 15  1  0  0  0  0
 13 28  1  0  0  0  0
 14 16  2  0  0  0  0
 14 29  1  0  0  0  0
 15 30  1  0  0  0  0
 16 31  1  0  0  0  0
 17 33  1  0  0  0  0
 17 34  1  0  0  0  0
 17 35  1  0  0  0  0
 18 19  1  0  0  0  0
 19 20  1  0  0  0  0
 20 21  2  0  0  0  0
 20 36  1  0  0  0  0
 21 23  1  0  0  0  0
 22 23  2  0  0  0  0
 24 25  1  0  0  0  0
 24 37  1  0  0  0  0
 24 38  1  0  0  0  0
 25 41  1  0  0  0  0
 25 42  1  0  0  0  0
 25 43  1  0  0  0  0
M  END
> <PUBCHEM_COMPOUND_CID>
16007116

> <PUBCHEM_COMPOUND_CANONICALIZED>
1

> <PUBCHEM_CACTVS_COMPLEXITY>
546

> <PUBCHEM_CACTVS_HBOND_ACCEPTOR>
6

> <PUBCHEM_CACTVS_HBOND_DONOR>
2

> <PUBCHEM_CACTVS_ROTATABLE_BOND>
6

> <PUBCHEM_CACTVS_SUBSKEYS>
AAADceB7OABEAAAAAAAAAAAAAAAAAAAAAAA8QAAAAAAAAAABwAAAHgYQAAAADArh3iayxZLIFAqoAyVyVHDCiCAnLnAImLm8b9gMZnPl9/vePSjm1hnI6Yec2AEOEAAAAAAAAAAgAAAAAAAAAAAAAAAAAA==

> <PUBCHEM_IUPAC_OPENEYE_NAME>
4-amino-5-chloro-6-ethoxy-N-[(4-methylsulfonylphenyl)methyl]pyridine-2-carboxamide

> <PUBCHEM_IUPAC_CAS_NAME>
4-amino-5-chloro-6-ethoxy-N-[(4-methylsulfonylphenyl)methyl]-2-pyridinecarboxamide

> <PUBCHEM_IUPAC_NAME_MARKUP>
4-amino-5-chloro-6-ethoxy-<I>N</I>-[(4-methylsulfonylphenyl)methyl]pyridine-2-carboxamide

> <PUBCHEM_IUPAC_NAME>
4-amino-5-chloro-6-ethoxy-N-[(4-methylsulfonylphenyl)methyl]pyridine-2-carboxamide

> <PUBCHEM_IUPAC_SYSTEMATIC_NAME>
4-azanyl-5-chloranyl-6-ethoxy-N-[(4-methylsulfonylphenyl)methyl]pyridine-2-carboxamide

> <PUBCHEM_IUPAC_TRADITIONAL_NAME>
4-amino-5-chloro-6-ethoxy-N-(4-mesylbenzyl)picolinamide

> <PUBCHEM_IUPAC_INCHI>
InChI=1S/C16H18ClN3O4S/c1-3-24-16-14(17)12(18)8-13(20-16)15(21)19-9-10-4-6-11(7-5-10)25(2,22)23/h4-8H,3,9H2,1-2H3,(H2,18,20)(H,19,21)

> <PUBCHEM_IUPAC_INCHIKEY>
ZVDDPXIWKBBCQE-UHFFFAOYSA-N

> <PUBCHEM_XLOGP3_AA>
1.8

> <PUBCHEM_EXACT_MASS>
383.0706549

> <PUBCHEM_MOLECULAR_FORMULA>
C16H18ClN3O4S

> <PUBCHEM_MOLECULAR_WEIGHT>
383.9

> <PUBCHEM_SMILES>
CCOC1=C(C(=CC(=N1)C(=O)NCC2=CC=C(C=C2)S(=O)(=O)C)N)Cl

> <PUBCHEM_OPENEYE_CAN_SMILES>
CCOC1=C(C(=CC(=N1)C(=O)NCC2=CC=C(C=C2)S(=O)(=O)C)N)Cl

> <PUBCHEM_OPENEYE_ISO_SMILES>
CCOC1=C(C(=CC(=N1)C(=O)NCC2=CC=C(C=C2)S(=O)(=O)C)N)Cl

> <PUBCHEM_CACTVS_TPSA>
120

> <PUBCHEM_MONOISOTOPIC_WEIGHT>
383.0706549

> <PUBCHEM_TOTAL_CHARGE>
0

> <PUBCHEM_HEAVY_ATOM_COUNT>
25

> <PUBCHEM_ATOM_DEF_STEREO_COUNT>
0

> <PUBCHEM_ATOM_UDEF_STEREO_COUNT>
0

> <PUBCHEM_BOND_DEF_STEREO_COUNT>
0

> <PUBCHEM_BOND_UDEF_STEREO_COUNT>
0

> <PUBCHEM_ISOTOPIC_ATOM_COUNT>
0

> <PUBCHEM_COMPONENT_COUNT>
1

> <PUBCHEM_CACTVS_TAUTO_COUNT>
-1

> <PUBCHEM_COORDINATE_TYPE>
1
5
255

> <PUBCHEM_BONDANNOTATIONS>
10  13  8
10  14  8
11  15  8
11  16  8
13  15  8
14  16  8
19  20  8
20  21  8
21  23  8
22  23  8
8  19  8
8  22  8

$$$$
