45375865
  -OEChem-03192523162D

 65 69  0     0  0  0  0  0  0999 V2000
    5.4641    2.5000    0.0000 S   0  0  0  0  0  0  0  0  0  0  0  0
    5.9641    3.3660    0.0000 O   0  0  0  0  0  0  0  0  0  0  0  0
    4.9641    1.6340    0.0000 O   0  0  0  0  0  0  0  0  0  0  0  0
    4.5981    3.0000    0.0000 N   0  0  0  0  0  0  0  0  0  0  0  0
    2.8660    4.0000    0.0000 N   0  0  0  0  0  0  0  0  0  0  0  0
    9.7942   -2.0000    0.0000 N   0  0  0  0  0  0  0  0  0  0  0  0
   13.3385   -3.8047    0.0000 N   0  0  0  0  0  0  0  0  0  0  0  0
    7.1962   -3.5000    0.0000 N   0  0  0  0  0  0  0  0  0  0  0  0
   10.6603   -4.5000    0.0000 N   0  0  0  0  0  0  0  0  0  0  0  0
    4.5981    4.0000    0.0000 C   0  0  0  0  0  0  0  0  0  0  0  0
    3.7320    2.5000    0.0000 C   0  0  0  0  0  0  0  0  0  0  0  0
    3.7320    4.5000    0.0000 C   0  0  0  0  0  0  0  0  0  0  0  0
    2.8660    3.0000    0.0000 C   0  0  0  0  0  0  0  0  0  0  0  0
    2.0000    4.5000    0.0000 C   0  0  0  0  0  0  0  0  0  0  0  0
    6.3301    2.0000    0.0000 C   0  0  0  0  0  0  0  0  0  0  0  0
    6.3301    1.0000    0.0000 C   0  0  0  0  0  0  0  0  0  0  0  0
    7.1962    2.5000    0.0000 C   0  0  0  0  0  0  0  0  0  0  0  0
    7.1962    0.5000    0.0000 C   0  0  0  0  0  0  0  0  0  0  0  0
    8.0622    2.0000    0.0000 C   0  0  0  0  0  0  0  0  0  0  0  0
    8.0622    1.0000    0.0000 C   0  0  0  0  0  0  0  0  0  0  0  0
   12.3923   -2.5000    0.0000 C   0  0  0  0  0  0  0  0  0  0  0  0
    7.1962   -0.5000    0.0000 C   0  0  0  0  0  0  0  0  0  0  0  0
   11.5263   -2.0000    0.0000 C   0  0  0  0  0  0  0  0  0  0  0  0
   10.6603   -2.5000    0.0000 C   0  0  0  0  0  0  0  0  0  0  0  0
   12.3923   -3.5000    0.0000 C   0  0  0  0  0  0  0  0  0  0  0  0
    8.0622   -1.0000    0.0000 C   0  0  0  0  0  0  0  0  0  0  0  0
    8.9282   -2.5000    0.0000 C   0  0  0  0  0  0  0  0  0  0  0  0
   10.6603   -3.5000    0.0000 C   0  0  0  0  0  0  0  0  0  0  0  0
   11.5263   -4.0000    0.0000 C   0  0  0  0  0  0  0  0  0  0  0  0
    8.0622   -2.0000    0.0000 C   0  0  0  0  0  0  0  0  0  0  0  0
   13.3385   -2.1953    0.0000 C   0  0  0  0  0  0  0  0  0  0  0  0
   11.5263   -1.0000    0.0000 C   0  0  0  0  0  0  0  0  0  0  0  0
   13.9221   -3.0000    0.0000 C   0  0  0  0  0  0  0  0  0  0  0  0
    8.9282   -3.5000    0.0000 C   0  0  0  0  0  0  0  0  0  0  0  0
    7.1962   -2.5000    0.0000 C   0  0  0  0  0  0  0  0  0  0  0  0
    8.0622   -4.0000    0.0000 C   0  0  0  0  0  0  0  0  0  0  0  0
    9.7942   -4.0000    0.0000 C   0  0  0  0  0  0  0  0  0  0  0  0
    5.2087    3.8923    0.0000 H   0  0  0  0  0  0  0  0  0  0  0  0
    4.8101    4.5826    0.0000 H   0  0  0  0  0  0  0  0  0  0  0  0
    3.3335    2.0250    0.0000 H   0  0  0  0  0  0  0  0  0  0  0  0
    4.1306    2.0250    0.0000 H   0  0  0  0  0  0  0  0  0  0  0  0
    4.1306    4.9750    0.0000 H   0  0  0  0  0  0  0  0  0  0  0  0
    3.3335    4.9750    0.0000 H   0  0  0  0  0  0  0  0  0  0  0  0
    2.2554    3.1077    0.0000 H   0  0  0  0  0  0  0  0  0  0  0  0
    2.6540    2.4174    0.0000 H   0  0  0  0  0  0  0  0  0  0  0  0
    2.3100    5.0369    0.0000 H   0  0  0  0  0  0  0  0  0  0  0  0
    1.4631    4.8100    0.0000 H   0  0  0  0  0  0  0  0  0  0  0  0
    1.6900    3.9631    0.0000 H   0  0  0  0  0  0  0  0  0  0  0  0
    5.7932    0.6900    0.0000 H   0  0  0  0  0  0  0  0  0  0  0  0
    7.1962    3.1200    0.0000 H   0  0  0  0  0  0  0  0  0  0  0  0
    8.5991    2.3100    0.0000 H   0  0  0  0  0  0  0  0  0  0  0  0
    8.5991    0.6900    0.0000 H   0  0  0  0  0  0  0  0  0  0  0  0
    6.6592   -0.8100    0.0000 H   0  0  0  0  0  0  0  0  0  0  0  0
    9.7942   -1.3800    0.0000 H   0  0  0  0  0  0  0  0  0  0  0  0
   10.1233   -3.8100    0.0000 H   0  0  0  0  0  0  0  0  0  0  0  0
   11.5263   -4.6200    0.0000 H   0  0  0  0  0  0  0  0  0  0  0  0
    8.5991   -0.6900    0.0000 H   0  0  0  0  0  0  0  0  0  0  0  0
   13.5311   -1.6060    0.0000 H   0  0  0  0  0  0  0  0  0  0  0  0
   13.5311   -4.3940    0.0000 H   0  0  0  0  0  0  0  0  0  0  0  0
   12.1463   -1.0000    0.0000 H   0  0  0  0  0  0  0  0  0  0  0  0
   11.5263   -0.3800    0.0000 H   0  0  0  0  0  0  0  0  0  0  0  0
   10.9063   -1.0000    0.0000 H   0  0  0  0  0  0  0  0  0  0  0  0
   14.5421   -3.0000    0.0000 H   0  0  0  0  0  0  0  0  0  0  0  0
    6.6592   -2.1900    0.0000 H   0  0  0  0  0  0  0  0  0  0  0  0
    8.0622   -4.6200    0.0000 H   0  0  0  0  0  0  0  0  0  0  0  0
  1  2  2  0  0  0  0
  1  3  2  0  0  0  0
  1  4  1  0  0  0  0
  1 15  1  0  0  0  0
  4 10  1  0  0  0  0
  4 11  1  0  0  0  0
  5 12  1  0  0  0  0
  5 13  1  0  0  0  0
  5 14  1  0  0  0  0
  6 24  1  0  0  0  0
  6 27  1  0  0  0  0
  6 54  1  0  0  0  0
  7 25  1  0  0  0  0
  7 33  1  0  0  0  0
  7 59  1  0  0  0  0
  8 35  1  0  0  0  0
  8 36  2  0  0  0  0
  9 37  3  0  0  0  0
 10 12  1  0  0  0  0
 10 38  1  0  0  0  0
 10 39  1  0  0  0  0
 11 13  1  0  0  0  0
 11 40  1  0  0  0  0
 11 41  1  0  0  0  0
 12 42  1  0  0  0  0
 12 43  1  0  0  0  0
 13 44  1  0  0  0  0
 13 45  1  0  0  0  0
 14 46  1  0  0  0  0
 14 47  1  0  0  0  0
 14 48  1  0  0  0  0
 15 16  1  0  0  0  0
 15 17  2  0  0  0  0
 16 18  2  0  0  0  0
 16 49  1  0  0  0  0
 17 19  1  0  0  0  0
 17 50  1  0  0  0  0
 18 20  1  0  0  0  0
 18 22  1  0  0  0  0
 19 20  2  0  0  0  0
 19 51  1  0  0  0  0
 20 52  1  0  0  0  0
 21 23  1  0  0  0  0
 21 25  2  0  0  0  0
 21 31  1  0  0  0  0
 22 26  2  0  0  0  0
 22 53  1  0  0  0  0
 23 24  2  0  0  0  0
 23 32  1  0  0  0  0
 24 28  1  0  0  0  0
 25 29  1  0  0  0  0
 26 30  1  0  0  0  0
 26 57  1  0  0  0  0
 27 30  1  0  0  0  0
 27 34  2  0  0  0  0
 28 29  2  0  0  0  0
 28 55  1  0  0  0  0
 29 56  1  0  0  0  0
 30 35  2  0  0  0  0
 31 33  2  0  0  0  0
 31 58  1  0  0  0  0
 32 60  1  0  0  0  0
 32 61  1  0  0  0  0
 32 62  1  0  0  0  0
 33 63  1  0  0  0  0
 34 36  1  0  0  0  0
 34 37  1  0  0  0  0
 35 64  1  0  0  0  0
 36 65  1  0  0  0  0
M  END
> <PUBCHEM_COMPOUND_CID>
45375865

> <PUBCHEM_COMPOUND_CANONICALIZED>
1

> <PUBCHEM_CACTVS_COMPLEXITY>
949

> <PUBCHEM_CACTVS_HBOND_ACCEPTOR>
7

> <PUBCHEM_CACTVS_HBOND_DONOR>
2

> <PUBCHEM_CACTVS_ROTATABLE_BOND>
6

> <PUBCHEM_CACTVS_SUBSKEYS>
AAADceB7sABAAAAAAAAAAAAAAAAAAWAAAAA8eIEAAAAAAFgB/AAAHAQQQAAADAjBXgQ+wfPJkAKwBzRnRHDigDAxAiAI2bg4ZJgI4OLA0dGUJAhgkADIyA8QgIAOgACAwAASAAAAAQGAACQAAAAAAAAAAA==

> <PUBCHEM_IUPAC_OPENEYE_NAME>
4-[(4-methyl-1H-indol-5-yl)amino]-5-[(E)-2-[3-(4-methylpiperazin-1-yl)sulfonylphenyl]vinyl]pyridine-3-carbonitrile

> <PUBCHEM_IUPAC_CAS_NAME>
4-[(4-methyl-1H-indol-5-yl)amino]-5-[(E)-2-[3-[(4-methyl-1-piperazinyl)sulfonyl]phenyl]ethenyl]-3-pyridinecarbonitrile

> <PUBCHEM_IUPAC_NAME_MARKUP>
4-[(4-methyl-1<I>H</I>-indol-5-yl)amino]-5-[(<I>E</I>)-2-[3-(4-methylpiperazin-1-yl)sulfonylphenyl]ethenyl]pyridine-3-carbonitrile

> <PUBCHEM_IUPAC_NAME>
4-[(4-methyl-1H-indol-5-yl)amino]-5-[(E)-2-[3-(4-methylpiperazin-1-yl)sulfonylphenyl]ethenyl]pyridine-3-carbonitrile

> <PUBCHEM_IUPAC_SYSTEMATIC_NAME>
4-[(4-methyl-1H-indol-5-yl)amino]-5-[(E)-2-[3-(4-methylpiperazin-1-yl)sulfonylphenyl]ethenyl]pyridine-3-carbonitrile

> <PUBCHEM_IUPAC_TRADITIONAL_NAME>
4-[(4-methyl-1H-indol-5-yl)amino]-5-[(E)-2-[3-(4-methylpiperazino)sulfonylphenyl]vinyl]nicotinonitrile

> <PUBCHEM_IUPAC_INCHI>
InChI=1S/C28H28N6O2S/c1-20-25-10-11-31-27(25)9-8-26(20)32-28-22(18-30-19-23(28)17-29)7-6-21-4-3-5-24(16-21)37(35,36)34-14-12-33(2)13-15-34/h3-11,16,18-19,31H,12-15H2,1-2H3,(H,30,32)/b7-6+

> <PUBCHEM_IUPAC_INCHIKEY>
GMQQMSKNSNVPOW-VOTSOKGWSA-N

> <PUBCHEM_XLOGP3_AA>
4.4

> <PUBCHEM_EXACT_MASS>
512.19944533

> <PUBCHEM_MOLECULAR_FORMULA>
C28H28N6O2S

> <PUBCHEM_MOLECULAR_WEIGHT>
512.6

> <PUBCHEM_SMILES>
CC1=C(C=CC2=C1C=CN2)NC3=C(C=NC=C3/C=C/C4=CC(=CC=C4)S(=O)(=O)N5CCN(CC5)C)C#N

> <PUBCHEM_OPENEYE_CAN_SMILES>
CC1=C(C=CC2=C1C=CN2)NC3=C(C=NC=C3C=CC4=CC(=CC=C4)S(=O)(=O)N5CCN(CC5)C)C#N

> <PUBCHEM_OPENEYE_ISO_SMILES>
CC1=C(C=CC2=C1C=CN2)NC3=C(C=NC=C3/C=C/C4=CC(=CC=C4)S(=O)(=O)N5CCN(CC5)C)C#N

> <PUBCHEM_CACTVS_TPSA>
114

> <PUBCHEM_MONOISOTOPIC_WEIGHT>
512.19944533

> <PUBCHEM_TOTAL_CHARGE>
0

> <PUBCHEM_HEAVY_ATOM_COUNT>
37

> <PUBCHEM_ATOM_DEF_STEREO_COUNT>
0

> <PUBCHEM_ATOM_UDEF_STEREO_COUNT>
0

> <PUBCHEM_BOND_DEF_STEREO_COUNT>
1

> <PUBCHEM_BOND_UDEF_STEREO_COUNT>
0

> <PUBCHEM_ISOTOPIC_ATOM_COUNT>
0

> <PUBCHEM_COMPONENT_COUNT>
1

> <PUBCHEM_CACTVS_TAUTO_COUNT>
-1

> <PUBCHEM_COORDINATE_TYPE>
1
5
255

> <PUBCHEM_BONDANNOTATIONS>
15  16  8
15  17  8
16  18  8
17  19  8
18  20  8
19  20  8
21  23  8
21  25  8
21  31  8
23  24  8
24  28  8
25  29  8
27  30  8
27  34  8
28  29  8
30  35  8
31  33  8
34  36  8
7  25  8
7  33  8
8  35  8
8  36  8

$$$$
