9956874
  -OEChem-03202504282D

 71 76  0     0  0  0  0  0  0999 V2000
    7.2566    3.5148    0.0000 O   0  0  0  0  0  0  0  0  0  0  0  0
    5.9209   -4.2102    0.0000 N   0  0  0  0  0  0  0  0  0  0  0  0
    4.6783   -0.4082    0.0000 N   0  0  0  0  0  0  0  0  0  0  0  0
    2.8660   -0.6034    0.0000 N   0  0  0  0  0  0  0  0  0  0  0  0
    2.0000    0.8966    0.0000 N   0  0  0  0  0  0  0  0  0  0  0  0
    2.8660    2.3966    0.0000 N   0  0  0  0  0  0  0  0  0  0  0  0
    5.6103   -3.2597    0.0000 C   0  0  0  0  0  0  0  0  0  0  0  0
    4.9889   -1.3587    0.0000 C   0  0  0  0  0  0  0  0  0  0  0  0
    6.2781   -2.5154    0.0000 C   0  0  0  0  0  0  0  0  0  0  0  0
    4.6318   -3.0535    0.0000 C   0  0  0  0  0  0  0  0  0  0  0  0
    5.9674   -1.5649    0.0000 C   0  0  0  0  0  0  0  0  0  0  0  0
    4.3211   -2.1030    0.0000 C   0  0  0  0  0  0  0  0  0  0  0  0
    5.3345   -5.0203    0.0000 C   0  0  0  0  0  0  0  0  0  0  0  0
    6.8725   -4.5176    0.0000 C   0  0  0  0  0  0  0  0  0  0  0  0
    5.9237   -5.8283    0.0000 C   0  0  0  0  0  0  0  0  0  0  0  0
    6.8742   -5.5176    0.0000 C   0  0  0  0  0  0  0  0  0  0  0  0
    5.2619    0.3966    0.0000 C   0  0  0  0  0  0  0  0  0  0  0  0
    3.7320   -0.1034    0.0000 C   0  0  0  0  0  0  0  0  0  0  0  0
    4.6783    1.2013    0.0000 C   0  0  0  0  0  0  0  0  0  0  0  0
    3.7320    0.8966    0.0000 C   0  0  0  0  0  0  0  0  0  0  0  0
    6.2619    0.3966    0.0000 C   0  0  0  0  0  0  0  0  0  0  0  0
    4.9889    2.1518    0.0000 C   0  0  0  0  0  0  0  0  0  0  0  0
    2.8660    1.3966    0.0000 C   0  0  0  0  0  0  0  0  0  0  0  0
    2.0000   -0.1034    0.0000 C   0  0  0  0  0  0  0  0  0  0  0  0
    5.9674    2.3580    0.0000 C   0  0  0  0  0  0  0  0  0  0  0  0
    4.3211    2.8961    0.0000 C   0  0  0  0  0  0  0  0  0  0  0  0
    6.2781    3.3086    0.0000 C   0  0  0  0  0  0  0  0  0  0  0  0
    4.6318    3.8466    0.0000 C   0  0  0  0  0  0  0  0  0  0  0  0
    5.6103    4.0529    0.0000 C   0  0  0  0  0  0  0  0  0  0  0  0
    7.5673    4.4653    0.0000 C   0  0  0  0  0  0  0  0  0  0  0  0
    8.5458    4.6715    0.0000 C   0  0  0  0  0  0  0  0  0  0  0  0
    9.2136    3.9272    0.0000 C   0  0  0  0  0  0  0  0  0  0  0  0
    8.8564    5.6220    0.0000 C   0  0  0  0  0  0  0  0  0  0  0  0
   10.1921    4.1334    0.0000 C   0  0  0  0  0  0  0  0  0  0  0  0
    9.8349    5.8283    0.0000 C   0  0  0  0  0  0  0  0  0  0  0  0
   10.5028    5.0840    0.0000 C   0  0  0  0  0  0  0  0  0  0  0  0
    6.2169   -3.3876    0.0000 H   0  0  0  0  0  0  0  0  0  0  0  0
    5.4030   -0.8972    0.0000 H   0  0  0  0  0  0  0  0  0  0  0  0
    6.6607   -3.0033    0.0000 H   0  0  0  0  0  0  0  0  0  0  0  0
    6.8250   -2.2234    0.0000 H   0  0  0  0  0  0  0  0  0  0  0  0
    4.0179   -3.1408    0.0000 H   0  0  0  0  0  0  0  0  0  0  0  0
    4.6112   -3.6732    0.0000 H   0  0  0  0  0  0  0  0  0  0  0  0
    6.5812   -1.4775    0.0000 H   0  0  0  0  0  0  0  0  0  0  0  0
    5.9880   -0.9452    0.0000 H   0  0  0  0  0  0  0  0  0  0  0  0
    3.9385   -1.6151    0.0000 H   0  0  0  0  0  0  0  0  0  0  0  0
    3.7742   -2.3950    0.0000 H   0  0  0  0  0  0  0  0  0  0  0  0
    4.8731   -4.6062    0.0000 H   0  0  0  0  0  0  0  0  0  0  0  0
    4.8745   -5.4359    0.0000 H   0  0  0  0  0  0  0  0  0  0  0  0
    7.4892   -4.5813    0.0000 H   0  0  0  0  0  0  0  0  0  0  0  0
    7.0004   -3.9109    0.0000 H   0  0  0  0  0  0  0  0  0  0  0  0
    5.3873   -6.1392    0.0000 H   0  0  0  0  0  0  0  0  0  0  0  0
    6.1769   -6.3942    0.0000 H   0  0  0  0  0  0  0  0  0  0  0  0
    7.0042   -6.1238    0.0000 H   0  0  0  0  0  0  0  0  0  0  0  0
    7.4907   -5.4517    0.0000 H   0  0  0  0  0  0  0  0  0  0  0  0
    6.2619   -0.2234    0.0000 H   0  0  0  0  0  0  0  0  0  0  0  0
    6.8819    0.3966    0.0000 H   0  0  0  0  0  0  0  0  0  0  0  0
    6.2619    1.0166    0.0000 H   0  0  0  0  0  0  0  0  0  0  0  0
    1.4631   -0.4134    0.0000 H   0  0  0  0  0  0  0  0  0  0  0  0
    6.3815    1.8966    0.0000 H   0  0  0  0  0  0  0  0  0  0  0  0
    3.7144    2.7683    0.0000 H   0  0  0  0  0  0  0  0  0  0  0  0
    2.3291    2.7066    0.0000 H   0  0  0  0  0  0  0  0  0  0  0  0
    3.4030    2.7066    0.0000 H   0  0  0  0  0  0  0  0  0  0  0  0
    4.2177    4.3081    0.0000 H   0  0  0  0  0  0  0  0  0  0  0  0
    5.8029    4.6422    0.0000 H   0  0  0  0  0  0  0  0  0  0  0  0
    7.5467    5.0850    0.0000 H   0  0  0  0  0  0  0  0  0  0  0  0
    6.9534    4.5527    0.0000 H   0  0  0  0  0  0  0  0  0  0  0  0
    9.0210    3.3379    0.0000 H   0  0  0  0  0  0  0  0  0  0  0  0
    8.4424    6.0835    0.0000 H   0  0  0  0  0  0  0  0  0  0  0  0
   10.6062    3.6720    0.0000 H   0  0  0  0  0  0  0  0  0  0  0  0
   10.0276    6.4176    0.0000 H   0  0  0  0  0  0  0  0  0  0  0  0
   11.1095    5.2118    0.0000 H   0  0  0  0  0  0  0  0  0  0  0  0
  1 27  1  0  0  0  0
  1 30  1  0  0  0  0
  2  7  1  0  0  0  0
  2 13  1  0  0  0  0
  2 14  1  0  0  0  0
  3  8  1  0  0  0  0
  3 17  1  0  0  0  0
  3 18  1  0  0  0  0
  4 18  2  0  0  0  0
  4 24  1  0  0  0  0
  5 23  1  0  0  0  0
  5 24  2  0  0  0  0
  6 23  1  0  0  0  0
  6 61  1  0  0  0  0
  6 62  1  0  0  0  0
  7  9  1  0  0  0  0
  7 10  1  0  0  0  0
  7 37  1  0  0  0  0
  8 11  1  0  0  0  0
  8 12  1  0  0  0  0
  8 38  1  0  0  0  0
  9 11  1  0  0  0  0
  9 39  1  0  0  0  0
  9 40  1  0  0  0  0
 10 12  1  0  0  0  0
 10 41  1  0  0  0  0
 10 42  1  0  0  0  0
 11 43  1  0  0  0  0
 11 44  1  0  0  0  0
 12 45  1  0  0  0  0
 12 46  1  0  0  0  0
 13 15  1  0  0  0  0
 13 47  1  0  0  0  0
 13 48  1  0  0  0  0
 14 16  1  0  0  0  0
 14 49  1  0  0  0  0
 14 50  1  0  0  0  0
 15 16  1  0  0  0  0
 15 51  1  0  0  0  0
 15 52  1  0  0  0  0
 16 53  1  0  0  0  0
 16 54  1  0  0  0  0
 17 19  2  0  0  0  0
 17 21  1  0  0  0  0
 18 20  1  0  0  0  0
 19 20  1  0  0  0  0
 19 22  1  0  0  0  0
 20 23  2  0  0  0  0
 21 55  1  0  0  0  0
 21 56  1  0  0  0  0
 21 57  1  0  0  0  0
 22 25  2  0  0  0  0
 22 26  1  0  0  0  0
 24 58  1  0  0  0  0
 25 27  1  0  0  0  0
 25 59  1  0  0  0  0
 26 28  2  0  0  0  0
 26 60  1  0  0  0  0
 27 29  2  0  0  0  0
 28 29  1  0  0  0  0
 28 63  1  0  0  0  0
 29 64  1  0  0  0  0
 30 31  1  0  0  0  0
 30 65  1  0  0  0  0
 30 66  1  0  0  0  0
 31 32  2  0  0  0  0
 31 33  1  0  0  0  0
 32 34  1  0  0  0  0
 32 67  1  0  0  0  0
 33 35  2  0  0  0  0
 33 68  1  0  0  0  0
 34 36  2  0  0  0  0
 34 69  1  0  0  0  0
 35 36  1  0  0  0  0
 35 70  1  0  0  0  0
 36 71  1  0  0  0  0
M  END
> <PUBCHEM_COMPOUND_CID>
9956874

> <PUBCHEM_COMPOUND_CANONICALIZED>
1

> <PUBCHEM_CACTVS_COMPLEXITY>
687

> <PUBCHEM_CACTVS_HBOND_ACCEPTOR>
5

> <PUBCHEM_CACTVS_HBOND_DONOR>
1

> <PUBCHEM_CACTVS_ROTATABLE_BOND>
6

> <PUBCHEM_CACTVS_SUBSKEYS>
AAADcfB7oAAAAAAAAAAAAAAAAAAAAWLAAAA8YMEAAAAAAFgB/AAAHgAQAAAADCzhnwY3tt9MFACgAyZjZACCiCkxIKAJ2CA+TJiMLmLE+duGPCjswBPI6CeQ0PMOgAABAAAAAAAAAQIAAAAAAAAAAAAAAA==

> <PUBCHEM_IUPAC_OPENEYE_NAME>
5-(3-benzyloxyphenyl)-6-methyl-7-(4-pyrrolidin-1-ylcyclohexyl)pyrrolo[2,3-d]pyrimidin-4-amine

> <PUBCHEM_IUPAC_CAS_NAME>
6-methyl-5-(3-phenylmethoxyphenyl)-7-[4-(1-pyrrolidinyl)cyclohexyl]-4-pyrrolo[2,3-d]pyrimidinamine

> <PUBCHEM_IUPAC_NAME_MARKUP>
6-methyl-5-(3-phenylmethoxyphenyl)-7-(4-pyrrolidin-1-ylcyclohexyl)pyrrolo[2,3-d]pyrimidin-4-amine

> <PUBCHEM_IUPAC_NAME>
6-methyl-5-(3-phenylmethoxyphenyl)-7-(4-pyrrolidin-1-ylcyclohexyl)pyrrolo[2,3-d]pyrimidin-4-amine

> <PUBCHEM_IUPAC_SYSTEMATIC_NAME>
6-methyl-5-(3-phenylmethoxyphenyl)-7-(4-pyrrolidin-1-ylcyclohexyl)pyrrolo[2,3-d]pyrimidin-4-amine

> <PUBCHEM_IUPAC_TRADITIONAL_NAME>
[5-(3-benzoxyphenyl)-6-methyl-7-(4-pyrrolidinocyclohexyl)pyrrolo[2,3-d]pyrimidin-4-yl]amine

> <PUBCHEM_IUPAC_INCHI>
InChI=1S/C30H35N5O/c1-21-27(23-10-7-11-26(18-23)36-19-22-8-3-2-4-9-22)28-29(31)32-20-33-30(28)35(21)25-14-12-24(13-15-25)34-16-5-6-17-34/h2-4,7-11,18,20,24-25H,5-6,12-17,19H2,1H3,(H2,31,32,33)

> <PUBCHEM_IUPAC_INCHIKEY>
DJOJKIGNNDWGRS-UHFFFAOYSA-N

> <PUBCHEM_XLOGP3_AA>
5.5

> <PUBCHEM_EXACT_MASS>
481.28416076

> <PUBCHEM_MOLECULAR_FORMULA>
C30H35N5O

> <PUBCHEM_MOLECULAR_WEIGHT>
481.6

> <PUBCHEM_SMILES>
CC1=C(C2=C(N=CN=C2N1C3CCC(CC3)N4CCCC4)N)C5=CC(=CC=C5)OCC6=CC=CC=C6

> <PUBCHEM_OPENEYE_CAN_SMILES>
CC1=C(C2=C(N=CN=C2N1C3CCC(CC3)N4CCCC4)N)C5=CC(=CC=C5)OCC6=CC=CC=C6

> <PUBCHEM_OPENEYE_ISO_SMILES>
CC1=C(C2=C(N=CN=C2N1C3CCC(CC3)N4CCCC4)N)C5=CC(=CC=C5)OCC6=CC=CC=C6

> <PUBCHEM_CACTVS_TPSA>
69.2

> <PUBCHEM_MONOISOTOPIC_WEIGHT>
481.28416076

> <PUBCHEM_TOTAL_CHARGE>
0

> <PUBCHEM_HEAVY_ATOM_COUNT>
36

> <PUBCHEM_ATOM_DEF_STEREO_COUNT>
0

> <PUBCHEM_ATOM_UDEF_STEREO_COUNT>
0

> <PUBCHEM_BOND_DEF_STEREO_COUNT>
0

> <PUBCHEM_BOND_UDEF_STEREO_COUNT>
0

> <PUBCHEM_ISOTOPIC_ATOM_COUNT>
0

> <PUBCHEM_COMPONENT_COUNT>
1

> <PUBCHEM_CACTVS_TAUTO_COUNT>
-1

> <PUBCHEM_COORDINATE_TYPE>
1
5
255

> <PUBCHEM_BONDANNOTATIONS>
17  19  8
18  20  8
19  20  8
20  23  8
22  25  8
22  26  8
25  27  8
26  28  8
27  29  8
28  29  8
3  17  8
3  18  8
31  32  8
31  33  8
32  34  8
33  35  8
34  36  8
35  36  8
4  18  8
4  24  8
5  23  8
5  24  8

$$$$
