44329010
  -OEChem-03202507332D

 68 74  0     0  0  0  0  0  0999 V2000
   13.6005   -1.7552    0.0000 O   0  0  0  0  0  0  0  0  0  0  0  0
    6.9390    0.5484    0.0000 O   0  0  0  0  0  0  0  0  0  0  0  0
    9.8746    1.1671    0.0000 N   0  0  0  0  0  0  0  0  0  0  0  0
    9.8746   -1.1671    0.0000 N   0  0  0  0  0  0  0  0  0  0  0  0
    3.9570    2.5751    0.0000 N   0  0  0  0  0  0  0  0  0  0  0  0
   13.8735    0.0000    0.0000 N   0  0  0  0  0  0  0  0  0  0  0  0
    6.5819    2.2433    0.0000 N   0  0  0  0  0  0  0  0  0  0  0  0
   10.6116    0.5000    0.0000 C   0  0  0  0  0  0  0  0  0  0  0  0
   11.4776    1.0000    0.0000 C   0  0  0  0  0  0  0  0  0  0  0  0
   12.3436    0.5000    0.0000 C   0  0  0  0  0  0  0  0  0  0  0  0
   10.6116   -0.5000    0.0000 C   0  0  0  0  0  0  0  0  0  0  0  0
   11.4776   -1.0000    0.0000 C   0  0  0  0  0  0  0  0  0  0  0  0
   12.3436   -0.5000    0.0000 C   0  0  0  0  0  0  0  0  0  0  0  0
   11.2684    1.9718    0.0000 C   0  0  0  0  0  0  0  0  0  0  0  0
   10.2797    2.0749    0.0000 C   0  0  0  0  0  0  0  0  0  0  0  0
   13.2899    0.8047    0.0000 C   0  0  0  0  0  0  0  0  0  0  0  0
   11.2684   -1.9718    0.0000 C   0  0  0  0  0  0  0  0  0  0  0  0
    8.8961    0.9609    0.0000 C   0  0  0  0  0  0  0  0  0  0  0  0
   10.2797   -2.0749    0.0000 C   0  0  0  0  0  0  0  0  0  0  0  0
   13.2899   -0.8047    0.0000 C   0  0  0  0  0  0  0  0  0  0  0  0
    3.2892    3.3194    0.0000 C   0  0  0  0  0  0  0  0  0  0  0  0
    3.6464    1.6246    0.0000 C   0  0  0  0  0  0  0  0  0  0  0  0
    2.3107    3.1132    0.0000 C   0  0  0  0  0  0  0  0  0  0  0  0
    2.6678    1.4184    0.0000 C   0  0  0  0  0  0  0  0  0  0  0  0
    2.0000    2.1627    0.0000 C   0  0  0  0  0  0  0  0  0  0  0  0
    4.9355    2.7813    0.0000 C   0  0  0  0  0  0  0  0  0  0  0  0
    8.2282    1.7052    0.0000 C   0  0  0  0  0  0  0  0  0  0  0  0
   11.8892    2.8006    0.0000 C   0  0  0  0  0  0  0  0  0  0  0  0
    9.8432    3.0138    0.0000 C   0  0  0  0  0  0  0  0  0  0  0  0
    5.6034    2.0370    0.0000 C   0  0  0  0  0  0  0  0  0  0  0  0
   11.8892   -2.8006    0.0000 C   0  0  0  0  0  0  0  0  0  0  0  0
    9.8432   -3.0138    0.0000 C   0  0  0  0  0  0  0  0  0  0  0  0
   11.4745    3.7494    0.0000 C   0  0  0  0  0  0  0  0  0  0  0  0
    7.2497    1.4990    0.0000 C   0  0  0  0  0  0  0  0  0  0  0  0
   10.4446    3.8567    0.0000 C   0  0  0  0  0  0  0  0  0  0  0  0
   11.4745   -3.7494    0.0000 C   0  0  0  0  0  0  0  0  0  0  0  0
   10.4446   -3.8567    0.0000 C   0  0  0  0  0  0  0  0  0  0  0  0
   13.8272    1.1140    0.0000 H   0  0  0  0  0  0  0  0  0  0  0  0
   13.0388    1.3716    0.0000 H   0  0  0  0  0  0  0  0  0  0  0  0
    8.3697    0.6332    0.0000 H   0  0  0  0  0  0  0  0  0  0  0  0
    9.1273    0.3856    0.0000 H   0  0  0  0  0  0  0  0  0  0  0  0
    9.2679   -1.0392    0.0000 H   0  0  0  0  0  0  0  0  0  0  0  0
    3.8155    3.6471    0.0000 H   0  0  0  0  0  0  0  0  0  0  0  0
    3.0579    3.8947    0.0000 H   0  0  0  0  0  0  0  0  0  0  0  0
    3.6669    1.0049    0.0000 H   0  0  0  0  0  0  0  0  0  0  0  0
    4.2602    1.5372    0.0000 H   0  0  0  0  0  0  0  0  0  0  0  0
    2.2901    3.7329    0.0000 H   0  0  0  0  0  0  0  0  0  0  0  0
    1.6968    3.2005    0.0000 H   0  0  0  0  0  0  0  0  0  0  0  0
    2.1415    1.0907    0.0000 H   0  0  0  0  0  0  0  0  0  0  0  0
    2.8991    0.8431    0.0000 H   0  0  0  0  0  0  0  0  0  0  0  0
    1.4531    2.4547    0.0000 H   0  0  0  0  0  0  0  0  0  0  0  0
    1.6174    1.6748    0.0000 H   0  0  0  0  0  0  0  0  0  0  0  0
   14.4935    0.0000    0.0000 H   0  0  0  0  0  0  0  0  0  0  0  0
    5.4619    3.1090    0.0000 H   0  0  0  0  0  0  0  0  0  0  0  0
    4.7043    3.3566    0.0000 H   0  0  0  0  0  0  0  0  0  0  0  0
    8.7546    2.0328    0.0000 H   0  0  0  0  0  0  0  0  0  0  0  0
    7.9970    2.2804    0.0000 H   0  0  0  0  0  0  0  0  0  0  0  0
   12.5050    2.7292    0.0000 H   0  0  0  0  0  0  0  0  0  0  0  0
    9.2258    3.0710    0.0000 H   0  0  0  0  0  0  0  0  0  0  0  0
    5.0770    1.7094    0.0000 H   0  0  0  0  0  0  0  0  0  0  0  0
    5.8346    1.4618    0.0000 H   0  0  0  0  0  0  0  0  0  0  0  0
   12.5050   -2.7292    0.0000 H   0  0  0  0  0  0  0  0  0  0  0  0
    9.2258   -3.0710    0.0000 H   0  0  0  0  0  0  0  0  0  0  0  0
   11.8404    4.2499    0.0000 H   0  0  0  0  0  0  0  0  0  0  0  0
   10.1898    4.4219    0.0000 H   0  0  0  0  0  0  0  0  0  0  0  0
    6.7745    2.8326    0.0000 H   0  0  0  0  0  0  0  0  0  0  0  0
   11.8404   -4.2499    0.0000 H   0  0  0  0  0  0  0  0  0  0  0  0
   10.1898   -4.4219    0.0000 H   0  0  0  0  0  0  0  0  0  0  0  0
  1 20  2  0  0  0  0
  2 34  2  0  0  0  0
  3  8  1  0  0  0  0
  3 15  1  0  0  0  0
  3 18  1  0  0  0  0
  4 11  1  0  0  0  0
  4 19  1  0  0  0  0
  4 42  1  0  0  0  0
  5 21  1  0  0  0  0
  5 22  1  0  0  0  0
  5 26  1  0  0  0  0
  6 16  1  0  0  0  0
  6 20  1  0  0  0  0
  6 53  1  0  0  0  0
  7 30  1  0  0  0  0
  7 34  1  0  0  0  0
  7 66  1  0  0  0  0
  8  9  1  0  0  0  0
  8 11  2  0  0  0  0
  9 10  2  0  0  0  0
  9 14  1  0  0  0  0
 10 13  1  0  0  0  0
 10 16  1  0  0  0  0
 11 12  1  0  0  0  0
 12 13  2  0  0  0  0
 12 17  1  0  0  0  0
 13 20  1  0  0  0  0
 14 15  1  0  0  0  0
 14 28  2  0  0  0  0
 15 29  2  0  0  0  0
 16 38  1  0  0  0  0
 16 39  1  0  0  0  0
 17 19  1  0  0  0  0
 17 31  2  0  0  0  0
 18 27  1  0  0  0  0
 18 40  1  0  0  0  0
 18 41  1  0  0  0  0
 19 32  2  0  0  0  0
 21 23  1  0  0  0  0
 21 43  1  0  0  0  0
 21 44  1  0  0  0  0
 22 24  1  0  0  0  0
 22 45  1  0  0  0  0
 22 46  1  0  0  0  0
 23 25  1  0  0  0  0
 23 47  1  0  0  0  0
 23 48  1  0  0  0  0
 24 25  1  0  0  0  0
 24 49  1  0  0  0  0
 24 50  1  0  0  0  0
 25 51  1  0  0  0  0
 25 52  1  0  0  0  0
 26 30  1  0  0  0  0
 26 54  1  0  0  0  0
 26 55  1  0  0  0  0
 27 34  1  0  0  0  0
 27 56  1  0  0  0  0
 27 57  1  0  0  0  0
 28 33  1  0  0  0  0
 28 58  1  0  0  0  0
 29 35  1  0  0  0  0
 29 59  1  0  0  0  0
 30 60  1  0  0  0  0
 30 61  1  0  0  0  0
 31 36  1  0  0  0  0
 31 62  1  0  0  0  0
 32 37  1  0  0  0  0
 32 63  1  0  0  0  0
 33 35  2  0  0  0  0
 33 64  1  0  0  0  0
 35 65  1  0  0  0  0
 36 37  2  0  0  0  0
 36 67  1  0  0  0  0
 37 68  1  0  0  0  0
M  END
> <PUBCHEM_COMPOUND_CID>
44329010

> <PUBCHEM_COMPOUND_CANONICALIZED>
1

> <PUBCHEM_CACTVS_COMPLEXITY>
861

> <PUBCHEM_CACTVS_HBOND_ACCEPTOR>
3

> <PUBCHEM_CACTVS_HBOND_DONOR>
3

> <PUBCHEM_CACTVS_ROTATABLE_BOND>
6

> <PUBCHEM_CACTVS_SUBSKEYS>
AAADceB7sAAAAAAAAAAAAAAAAAAAAWLFgAA8YMEAAAAAAFgB/gAAHgAQAAAADAjBngQwwPPNkACoAyVyVACCgCQlEiAI2aE4dNgIYPrA1ZGUIQhglgDIyQccicCeyAACQAASACCQAASAACQAQAAAAAAAAA==

> <PUBCHEM_IUPAC_OPENEYE_NAME>
3-(14-oxo-3,13,23-triazahexacyclo[14.7.0.02,10.04,9.011,15.017,22]tricosa-1,4,6,8,10,15,17,19,21-nonaen-3-yl)-N-[2-(1-piperidyl)ethyl]propanamide

> <PUBCHEM_IUPAC_CAS_NAME>
3-(14-oxo-3,13,23-triazahexacyclo[14.7.0.02,10.04,9.011,15.017,22]tricosa-1,4,6,8,10,15,17,19,21-nonaen-3-yl)-N-[2-(1-piperidinyl)ethyl]propanamide

> <PUBCHEM_IUPAC_NAME_MARKUP>
3-(14-oxo-3,13,23-triazahexacyclo[14.7.0.0<SUP>2,10</SUP>.0<SUP>4,9</SUP>.0<SUP>11,15</SUP>.0<SUP>17,22</SUP>]tricosa-1,4,6,8,10,15,17,19,21-nonaen-3-yl)-<I>N</I>-(2-piperidin-1-ylethyl)propanamide

> <PUBCHEM_IUPAC_NAME>
3-(14-oxo-3,13,23-triazahexacyclo[14.7.0.02,10.04,9.011,15.017,22]tricosa-1,4,6,8,10,15,17,19,21-nonaen-3-yl)-N-(2-piperidin-1-ylethyl)propanamide

> <PUBCHEM_IUPAC_SYSTEMATIC_NAME>
3-(14-oxidanylidene-3,13,23-triazahexacyclo[14.7.0.02,10.04,9.011,15.017,22]tricosa-1,4,6,8,10,15,17,19,21-nonaen-3-yl)-N-(2-piperidin-1-ylethyl)propanamide

> <PUBCHEM_IUPAC_TRADITIONAL_NAME>
3-(14-keto-3,13,23-triazahexacyclo[14.7.0.02,10.04,9.011,15.017,22]tricosa-1,4,6,8,10,15,17,19,21-nonaen-3-yl)-N-(2-piperidinoethyl)propionamide

> <PUBCHEM_IUPAC_INCHI>
InChI=1S/C30H31N5O2/c36-24(31-13-17-34-14-6-1-7-15-34)12-16-35-23-11-5-3-9-20(23)25-21-18-32-30(37)27(21)26-19-8-2-4-10-22(19)33-28(26)29(25)35/h2-5,8-11,33H,1,6-7,12-18H2,(H,31,36)(H,32,37)

> <PUBCHEM_IUPAC_INCHIKEY>
ZFNQOYBHHLGQDV-UHFFFAOYSA-N

> <PUBCHEM_XLOGP3_AA>
3.7

> <PUBCHEM_EXACT_MASS>
493.24777525

> <PUBCHEM_MOLECULAR_FORMULA>
C30H31N5O2

> <PUBCHEM_MOLECULAR_WEIGHT>
493.6

> <PUBCHEM_SMILES>
C1CCN(CC1)CCNC(=O)CCN2C3=CC=CC=C3C4=C5CNC(=O)C5=C6C7=CC=CC=C7NC6=C42

> <PUBCHEM_OPENEYE_CAN_SMILES>
C1CCN(CC1)CCNC(=O)CCN2C3=CC=CC=C3C4=C5CNC(=O)C5=C6C7=CC=CC=C7NC6=C42

> <PUBCHEM_OPENEYE_ISO_SMILES>
C1CCN(CC1)CCNC(=O)CCN2C3=CC=CC=C3C4=C5CNC(=O)C5=C6C7=CC=CC=C7NC6=C42

> <PUBCHEM_CACTVS_TPSA>
82.2

> <PUBCHEM_MONOISOTOPIC_WEIGHT>
493.24777525

> <PUBCHEM_TOTAL_CHARGE>
0

> <PUBCHEM_HEAVY_ATOM_COUNT>
37

> <PUBCHEM_ATOM_DEF_STEREO_COUNT>
0

> <PUBCHEM_ATOM_UDEF_STEREO_COUNT>
0

> <PUBCHEM_BOND_DEF_STEREO_COUNT>
0

> <PUBCHEM_BOND_UDEF_STEREO_COUNT>
0

> <PUBCHEM_ISOTOPIC_ATOM_COUNT>
0

> <PUBCHEM_COMPONENT_COUNT>
1

> <PUBCHEM_CACTVS_TAUTO_COUNT>
-1

> <PUBCHEM_COORDINATE_TYPE>
1
5
255

> <PUBCHEM_BONDANNOTATIONS>
10  13  8
11  12  8
12  13  8
12  17  8
14  15  8
14  28  8
15  29  8
17  19  8
17  31  8
19  32  8
28  33  8
29  35  8
3  15  8
3  8  8
31  36  8
32  37  8
33  35  8
36  37  8
4  11  8
4  19  8
8  11  8
8  9  8
9  10  8
9  14  8

$$$$
