2850534
  -OEChem-03202506572D

 34 37  0     0  0  0  0  0  0999 V2000
    4.6783   -2.4031    0.0000 N   0  0  0  0  0  0  0  0  0  0  0  0
    7.9936    0.8528    0.0000 N   0  0  0  0  0  0  0  0  0  0  0  0
    7.6617    2.4276    0.0000 N   0  0  0  0  0  0  0  0  0  0  0  0
    6.2781    1.3136    0.0000 N   0  0  0  0  0  0  0  0  0  0  0  0
    5.9674    0.3631    0.0000 N   0  0  0  0  0  0  0  0  0  0  0  0
    3.7320   -1.0984    0.0000 C   0  0  0  0  0  0  0  0  0  0  0  0
    3.7320   -2.0984    0.0000 C   0  0  0  0  0  0  0  0  0  0  0  0
    4.6783   -0.7936    0.0000 C   0  0  0  0  0  0  0  0  0  0  0  0
    5.2619   -1.5984    0.0000 C   0  0  0  0  0  0  0  0  0  0  0  0
    8.8567    1.3461    0.0000 C   0  0  0  0  0  0  0  0  0  0  0  0
    2.8660   -0.5984    0.0000 C   0  0  0  0  0  0  0  0  0  0  0  0
    8.6504    2.3246    0.0000 C   0  0  0  0  0  0  0  0  0  0  0  0
    2.8660   -2.5984    0.0000 C   0  0  0  0  0  0  0  0  0  0  0  0
    7.2566    1.5198    0.0000 C   0  0  0  0  0  0  0  0  0  0  0  0
    4.9889    0.1569    0.0000 C   0  0  0  0  0  0  0  0  0  0  0  0
    2.0000   -1.0984    0.0000 C   0  0  0  0  0  0  0  0  0  0  0  0
    2.0000   -2.0984    0.0000 C   0  0  0  0  0  0  0  0  0  0  0  0
    9.8072    1.0354    0.0000 C   0  0  0  0  0  0  0  0  0  0  0  0
    9.3948    2.9924    0.0000 C   0  0  0  0  0  0  0  0  0  0  0  0
   10.5515    1.7032    0.0000 C   0  0  0  0  0  0  0  0  0  0  0  0
   10.3453    2.6818    0.0000 C   0  0  0  0  0  0  0  0  0  0  0  0
    4.8709   -2.9924    0.0000 H   0  0  0  0  0  0  0  0  0  0  0  0
    5.8819   -1.5984    0.0000 H   0  0  0  0  0  0  0  0  0  0  0  0
    2.8660    0.0216    0.0000 H   0  0  0  0  0  0  0  0  0  0  0  0
    2.8660   -3.2184    0.0000 H   0  0  0  0  0  0  0  0  0  0  0  0
    7.9267    0.2364    0.0000 H   0  0  0  0  0  0  0  0  0  0  0  0
    4.5749    0.6184    0.0000 H   0  0  0  0  0  0  0  0  0  0  0  0
    1.4631   -0.7884    0.0000 H   0  0  0  0  0  0  0  0  0  0  0  0
    1.4631   -2.4084    0.0000 H   0  0  0  0  0  0  0  0  0  0  0  0
    9.9350    0.4287    0.0000 H   0  0  0  0  0  0  0  0  0  0  0  0
    9.2669    3.5991    0.0000 H   0  0  0  0  0  0  0  0  0  0  0  0
    5.8640    1.7751    0.0000 H   0  0  0  0  0  0  0  0  0  0  0  0
   11.1408    1.5106    0.0000 H   0  0  0  0  0  0  0  0  0  0  0  0
   10.8067    3.0958    0.0000 H   0  0  0  0  0  0  0  0  0  0  0  0
  1  7  1  0  0  0  0
  1  9  1  0  0  0  0
  1 22  1  0  0  0  0
  2 10  1  0  0  0  0
  2 14  1  0  0  0  0
  2 26  1  0  0  0  0
  3 12  1  0  0  0  0
  3 14  2  0  0  0  0
  4  5  1  0  0  0  0
  4 14  1  0  0  0  0
  4 32  1  0  0  0  0
  5 15  2  3  0  0  0
  6  7  1  0  0  0  0
  6  8  1  0  0  0  0
  6 11  2  0  0  0  0
  7 13  2  0  0  0  0
  8  9  2  0  0  0  0
  8 15  1  0  0  0  0
  9 23  1  0  0  0  0
 10 12  1  0  0  0  0
 10 18  2  0  0  0  0
 11 16  1  0  0  0  0
 11 24  1  0  0  0  0
 12 19  2  0  0  0  0
 13 17  1  0  0  0  0
 13 25  1  0  0  0  0
 15 27  1  0  0  0  0
 16 17  2  0  0  0  0
 16 28  1  0  0  0  0
 17 29  1  0  0  0  0
 18 20  1  0  0  0  0
 18 30  1  0  0  0  0
 19 21  1  0  0  0  0
 19 31  1  0  0  0  0
 20 21  2  0  0  0  0
 20 33  1  0  0  0  0
 21 34  1  0  0  0  0
M  END
> <PUBCHEM_COMPOUND_CID>
2850534

> <PUBCHEM_COMPOUND_CANONICALIZED>
1

> <PUBCHEM_CACTVS_COMPLEXITY>
385

> <PUBCHEM_CACTVS_HBOND_ACCEPTOR>
3

> <PUBCHEM_CACTVS_HBOND_DONOR>
3

> <PUBCHEM_CACTVS_ROTATABLE_BOND>
3

> <PUBCHEM_CACTVS_SUBSKEYS>
AAADccB7gAAAAAAAAAAAAAAAAAAAAWLAAAAwYAAAAAAAAFgB/gAAHAAYAAAADAjBHgQ90PbrkACgAzRnZACSgC2xEqAN2aA4dJiIaOLAmZGUIAh4mALIyCcQgMAOgAAAAAACACAAAAAAAAQAQAAAAAAAAA==

> <PUBCHEM_IUPAC_OPENEYE_NAME>
N-(1H-indol-3-ylmethyleneamino)-1H-benzimidazol-2-amine

> <PUBCHEM_IUPAC_CAS_NAME>
N-(1H-indol-3-ylmethylideneamino)-1H-benzimidazol-2-amine

> <PUBCHEM_IUPAC_NAME_MARKUP>
<I>N</I>-(1<I>H</I>-indol-3-ylmethylideneamino)-1<I>H</I>-benzimidazol-2-amine

> <PUBCHEM_IUPAC_NAME>
N-(1H-indol-3-ylmethylideneamino)-1H-benzimidazol-2-amine

> <PUBCHEM_IUPAC_SYSTEMATIC_NAME>
N-(1H-indol-3-ylmethylideneamino)-1H-benzimidazol-2-amine

> <PUBCHEM_IUPAC_TRADITIONAL_NAME>
1H-benzimidazol-2-yl-(1H-indol-3-ylmethyleneamino)amine

> <PUBCHEM_IUPAC_INCHI>
InChI=1S/C16H13N5/c1-2-6-13-12(5-1)11(9-17-13)10-18-21-16-19-14-7-3-4-8-15(14)20-16/h1-10,17H,(H2,19,20,21)

> <PUBCHEM_IUPAC_INCHIKEY>
QKWVMNHEYIXJMJ-UHFFFAOYSA-N

> <PUBCHEM_XLOGP3_AA>
3.6

> <PUBCHEM_EXACT_MASS>
275.11709544

> <PUBCHEM_MOLECULAR_FORMULA>
C16H13N5

> <PUBCHEM_MOLECULAR_WEIGHT>
275.31

> <PUBCHEM_SMILES>
C1=CC=C2C(=C1)C(=CN2)C=NNC3=NC4=CC=CC=C4N3

> <PUBCHEM_OPENEYE_CAN_SMILES>
C1=CC=C2C(=C1)C(=CN2)C=NNC3=NC4=CC=CC=C4N3

> <PUBCHEM_OPENEYE_ISO_SMILES>
C1=CC=C2C(=C1)C(=CN2)C=NNC3=NC4=CC=CC=C4N3

> <PUBCHEM_CACTVS_TPSA>
68.9

> <PUBCHEM_MONOISOTOPIC_WEIGHT>
275.11709544

> <PUBCHEM_TOTAL_CHARGE>
0

> <PUBCHEM_HEAVY_ATOM_COUNT>
21

> <PUBCHEM_ATOM_DEF_STEREO_COUNT>
0

> <PUBCHEM_ATOM_UDEF_STEREO_COUNT>
0

> <PUBCHEM_BOND_DEF_STEREO_COUNT>
0

> <PUBCHEM_BOND_UDEF_STEREO_COUNT>
1

> <PUBCHEM_ISOTOPIC_ATOM_COUNT>
0

> <PUBCHEM_COMPONENT_COUNT>
1

> <PUBCHEM_CACTVS_TAUTO_COUNT>
-1

> <PUBCHEM_COORDINATE_TYPE>
1
5
255

> <PUBCHEM_BONDANNOTATIONS>
1  7  8
1  9  8
10  12  8
10  18  8
11  16  8
12  19  8
13  17  8
16  17  8
18  20  8
19  21  8
2  10  8
2  14  8
20  21  8
3  12  8
3  14  8
5  15  1
6  11  8
6  7  8
6  8  8
7  13  8
8  9  8

$$$$
