18451366
  -OEChem-03202501542D

 42 45  0     0  0  0  0  0  0999 V2000
   10.5028    1.6241    0.0000 Br  0  0  0  0  0  0  0  0  0  0  0  0
    4.6783   -3.8680    0.0000 S   0  0  0  0  0  0  0  0  0  0  0  0
    7.5673    1.0055    0.0000 O   0  0  0  0  0  0  0  0  0  0  0  0
    5.9209    1.5436    0.0000 N   0  0  0  0  0  0  0  0  0  0  0  0
    2.0000   -2.5633    0.0000 N   0  0  0  0  0  0  0  0  0  0  0  0
    2.8660   -1.0633    0.0000 N   0  0  0  0  0  0  0  0  0  0  0  0
    7.2101    2.7003    0.0000 N   0  0  0  0  0  0  0  0  0  0  0  0
    4.6783   -2.2585    0.0000 C   0  0  0  0  0  0  0  0  0  0  0  0
    3.7320   -2.5633    0.0000 C   0  0  0  0  0  0  0  0  0  0  0  0
    4.9889   -1.3080    0.0000 C   0  0  0  0  0  0  0  0  0  0  0  0
    3.7320   -3.5633    0.0000 C   0  0  0  0  0  0  0  0  0  0  0  0
    5.2619   -3.0633    0.0000 C   0  0  0  0  0  0  0  0  0  0  0  0
    2.8660   -2.0633    0.0000 C   0  0  0  0  0  0  0  0  0  0  0  0
    4.3211   -0.5637    0.0000 C   0  0  0  0  0  0  0  0  0  0  0  0
    5.9674   -1.1018    0.0000 C   0  0  0  0  0  0  0  0  0  0  0  0
    5.6103    0.5930    0.0000 C   0  0  0  0  0  0  0  0  0  0  0  0
    4.6318    0.3868    0.0000 C   0  0  0  0  0  0  0  0  0  0  0  0
    6.2781   -0.1513    0.0000 C   0  0  0  0  0  0  0  0  0  0  0  0
    2.8660   -4.0633    0.0000 C   0  0  0  0  0  0  0  0  0  0  0  0
    2.0000   -3.5633    0.0000 C   0  0  0  0  0  0  0  0  0  0  0  0
    6.8994    1.7498    0.0000 C   0  0  0  0  0  0  0  0  0  0  0  0
    8.1886    2.9065    0.0000 C   0  0  0  0  0  0  0  0  0  0  0  0
    8.8564    2.1622    0.0000 C   0  0  0  0  0  0  0  0  0  0  0  0
    8.4993    3.8570    0.0000 C   0  0  0  0  0  0  0  0  0  0  0  0
    9.8349    2.3684    0.0000 C   0  0  0  0  0  0  0  0  0  0  0  0
    9.4778    4.0633    0.0000 C   0  0  0  0  0  0  0  0  0  0  0  0
   10.1456    3.3190    0.0000 C   0  0  0  0  0  0  0  0  0  0  0  0
    5.8819   -3.0633    0.0000 H   0  0  0  0  0  0  0  0  0  0  0  0
    3.7144   -0.6916    0.0000 H   0  0  0  0  0  0  0  0  0  0  0  0
    6.3815   -1.5632    0.0000 H   0  0  0  0  0  0  0  0  0  0  0  0
    4.2177    0.8483    0.0000 H   0  0  0  0  0  0  0  0  0  0  0  0
    6.8848   -0.0234    0.0000 H   0  0  0  0  0  0  0  0  0  0  0  0
    2.8660   -4.6833    0.0000 H   0  0  0  0  0  0  0  0  0  0  0  0
    1.4631   -3.8733    0.0000 H   0  0  0  0  0  0  0  0  0  0  0  0
    5.5069    2.0050    0.0000 H   0  0  0  0  0  0  0  0  0  0  0  0
    2.3291   -0.7533    0.0000 H   0  0  0  0  0  0  0  0  0  0  0  0
    3.4030   -0.7533    0.0000 H   0  0  0  0  0  0  0  0  0  0  0  0
    6.7960    3.1618    0.0000 H   0  0  0  0  0  0  0  0  0  0  0  0
    8.6638    1.5729    0.0000 H   0  0  0  0  0  0  0  0  0  0  0  0
    8.0852    4.3185    0.0000 H   0  0  0  0  0  0  0  0  0  0  0  0
    9.6704    4.6526    0.0000 H   0  0  0  0  0  0  0  0  0  0  0  0
   10.7523    3.4468    0.0000 H   0  0  0  0  0  0  0  0  0  0  0  0
  1 25  1  0  0  0  0
  2 11  1  0  0  0  0
  2 12  1  0  0  0  0
  3 21  2  0  0  0  0
  4 16  1  0  0  0  0
  4 21  1  0  0  0  0
  4 35  1  0  0  0  0
  5 13  2  0  0  0  0
  5 20  1  0  0  0  0
  6 13  1  0  0  0  0
  6 36  1  0  0  0  0
  6 37  1  0  0  0  0
  7 21  1  0  0  0  0
  7 22  1  0  0  0  0
  7 38  1  0  0  0  0
  8  9  1  0  0  0  0
  8 10  1  0  0  0  0
  8 12  2  0  0  0  0
  9 11  2  0  0  0  0
  9 13  1  0  0  0  0
 10 14  2  0  0  0  0
 10 15  1  0  0  0  0
 11 19  1  0  0  0  0
 12 28  1  0  0  0  0
 14 17  1  0  0  0  0
 14 29  1  0  0  0  0
 15 18  2  0  0  0  0
 15 30  1  0  0  0  0
 16 17  2  0  0  0  0
 16 18  1  0  0  0  0
 17 31  1  0  0  0  0
 18 32  1  0  0  0  0
 19 20  2  0  0  0  0
 19 33  1  0  0  0  0
 20 34  1  0  0  0  0
 22 23  2  0  0  0  0
 22 24  1  0  0  0  0
 23 25  1  0  0  0  0
 23 39  1  0  0  0  0
 24 26  2  0  0  0  0
 24 40  1  0  0  0  0
 25 27  2  0  0  0  0
 26 27  1  0  0  0  0
 26 41  1  0  0  0  0
 27 42  1  0  0  0  0
M  END
> <PUBCHEM_COMPOUND_CID>
18451366

> <PUBCHEM_COMPOUND_CANONICALIZED>
1

> <PUBCHEM_CACTVS_COMPLEXITY>
516

> <PUBCHEM_CACTVS_HBOND_ACCEPTOR>
4

> <PUBCHEM_CACTVS_HBOND_DONOR>
3

> <PUBCHEM_CACTVS_ROTATABLE_BOND>
3

> <PUBCHEM_CACTVS_SUBSKEYS>
AAADccB7oABAEAAAAAAAAAAAAAAAASAAAAA8YIAAAAAAAFgB/AAAHgRQAAABrAjFWgS98dLIEAisAjZndACDgKkxCjRI2Dg4ZLiIIGLgkZGEIAxolALoyjcQgMAOiAAAAAEAAAAQAAAAAgAAAAAAAAAAAA==

> <PUBCHEM_IUPAC_OPENEYE_NAME>
1-[4-(4-aminothieno[3,2-c]pyridin-3-yl)phenyl]-3-(3-bromophenyl)urea

> <PUBCHEM_IUPAC_CAS_NAME>
1-[4-(4-amino-3-thieno[3,2-c]pyridinyl)phenyl]-3-(3-bromophenyl)urea

> <PUBCHEM_IUPAC_NAME_MARKUP>
1-[4-(4-aminothieno[3,2-c]pyridin-3-yl)phenyl]-3-(3-bromophenyl)urea

> <PUBCHEM_IUPAC_NAME>
1-[4-(4-aminothieno[3,2-c]pyridin-3-yl)phenyl]-3-(3-bromophenyl)urea

> <PUBCHEM_IUPAC_SYSTEMATIC_NAME>
1-[4-(4-azanylthieno[3,2-c]pyridin-3-yl)phenyl]-3-(3-bromophenyl)urea

> <PUBCHEM_IUPAC_TRADITIONAL_NAME>
1-[4-(4-aminothieno[3,2-c]pyridin-3-yl)phenyl]-3-(3-bromophenyl)urea

> <PUBCHEM_IUPAC_INCHI>
InChI=1S/C20H15BrN4OS/c21-13-2-1-3-15(10-13)25-20(26)24-14-6-4-12(5-7-14)16-11-27-17-8-9-23-19(22)18(16)17/h1-11H,(H2,22,23)(H2,24,25,26)

> <PUBCHEM_IUPAC_INCHIKEY>
RWEHAHIEUDLKGT-UHFFFAOYSA-N

> <PUBCHEM_XLOGP3_AA>
4.4

> <PUBCHEM_EXACT_MASS>
438.01499

> <PUBCHEM_MOLECULAR_FORMULA>
C20H15BrN4OS

> <PUBCHEM_MOLECULAR_WEIGHT>
439.3

> <PUBCHEM_SMILES>
C1=CC(=CC(=C1)Br)NC(=O)NC2=CC=C(C=C2)C3=CSC4=C3C(=NC=C4)N

> <PUBCHEM_OPENEYE_CAN_SMILES>
C1=CC(=CC(=C1)Br)NC(=O)NC2=CC=C(C=C2)C3=CSC4=C3C(=NC=C4)N

> <PUBCHEM_OPENEYE_ISO_SMILES>
C1=CC(=CC(=C1)Br)NC(=O)NC2=CC=C(C=C2)C3=CSC4=C3C(=NC=C4)N

> <PUBCHEM_CACTVS_TPSA>
108

> <PUBCHEM_MONOISOTOPIC_WEIGHT>
438.01499

> <PUBCHEM_TOTAL_CHARGE>
0

> <PUBCHEM_HEAVY_ATOM_COUNT>
27

> <PUBCHEM_ATOM_DEF_STEREO_COUNT>
0

> <PUBCHEM_ATOM_UDEF_STEREO_COUNT>
0

> <PUBCHEM_BOND_DEF_STEREO_COUNT>
0

> <PUBCHEM_BOND_UDEF_STEREO_COUNT>
0

> <PUBCHEM_ISOTOPIC_ATOM_COUNT>
0

> <PUBCHEM_COMPONENT_COUNT>
1

> <PUBCHEM_CACTVS_TAUTO_COUNT>
-1

> <PUBCHEM_COORDINATE_TYPE>
1
5
255

> <PUBCHEM_BONDANNOTATIONS>
10  14  8
10  15  8
11  19  8
14  17  8
15  18  8
16  17  8
16  18  8
19  20  8
2  11  8
2  12  8
22  23  8
22  24  8
23  25  8
24  26  8
25  27  8
26  27  8
5  13  8
5  20  8
8  12  8
8  9  8
9  11  8
9  13  8

$$$$
