11784520
  -OEChem-03202504512D

 54 56  0     1  0  0  0  0  0999 V2000
    8.0030    0.6298    0.0000 Cl  0  0  0  0  0  0  0  0  0  0  0  0
    4.5389   -1.3702    0.0000 O   0  0  0  0  0  0  0  0  0  0  0  0
    3.3732   -4.9398    0.0000 O   0  0  0  0  0  0  0  0  0  0  0  0
    6.2710    1.6298    0.0000 O   0  0  0  0  0  0  0  0  0  0  0  0
    6.2710    3.6298    0.0000 O   0  0  0  0  0  0  0  0  0  0  0  0
    4.5389    4.6298    0.0000 O   0  0  0  0  0  0  0  0  0  0  0  0
    7.9440   -2.8185    0.0000 O   0  0  0  0  0  0  0  0  0  0  0  0
    6.2710   -2.3702    0.0000 N   0  0  0  0  0  0  0  0  0  0  0  0
    6.7192   -4.0432    0.0000 N   0  0  0  0  0  0  0  0  0  0  0  0
    5.0462   -4.4915    0.0000 N   0  0  0  0  0  0  0  0  0  0  0  0
    4.5216   -2.5335    0.0000 N   0  0  0  0  0  0  0  0  0  0  0  0
    2.0000   -4.1138    0.0000 N   0  0  0  0  0  0  0  0  0  0  0  0
    2.4249   -2.4008    0.0000 C   0  0  0  0  0  0  0  0  0  0  0  0
    2.6837   -1.4348    0.0000 C   0  0  0  0  0  0  0  0  0  0  0  0
    2.9249   -3.2668    0.0000 C   0  0  0  0  0  0  0  0  0  0  0  0
    3.6496   -1.1760    0.0000 C   0  0  0  0  0  0  0  0  0  0  0  0
    2.6661   -4.2327    0.0000 C   0  0  0  0  0  0  0  0  0  0  0  0
    5.4049   -0.8702    0.0000 C   0  0  0  0  0  0  0  0  0  0  0  0
    6.2710   -1.3702    0.0000 C   0  0  0  0  0  0  0  0  0  0  0  0
    5.4049    0.1298    0.0000 C   0  0  0  0  0  0  0  0  0  0  0  0
    6.2710    0.6298    0.0000 C   0  0  0  0  0  0  0  0  0  0  0  0
    5.4049    3.1298    0.0000 C   0  0  3  0  0  0  0  0  0  0  0  0
    5.4049    2.1298    0.0000 C   0  0  0  0  0  0  0  0  0  0  0  0
    7.1370   -0.8702    0.0000 C   0  0  0  0  0  0  0  0  0  0  0  0
    7.1370    0.1298    0.0000 C   0  0  0  0  0  0  0  0  0  0  0  0
    4.5389    3.6298    0.0000 C   0  0  0  0  0  0  0  0  0  0  0  0
    4.0803   -4.2327    0.0000 C   0  0  0  0  0  0  0  0  0  0  0  0
    6.9781   -3.0773    0.0000 C   0  0  0  0  0  0  0  0  0  0  0  0
    5.7533   -3.7844    0.0000 C   0  0  0  0  0  0  0  0  0  0  0  0
    3.8060   -3.2546    0.0000 C   0  0  0  0  0  0  0  0  0  0  0  0
    5.5018   -2.8002    0.0000 C   0  0  0  0  0  0  0  0  0  0  0  0
    2.9030   -3.6842    0.0000 C   0  0  0  0  0  0  0  0  0  0  0  0
    1.8880   -2.0908    0.0000 H   0  0  0  0  0  0  0  0  0  0  0  0
    1.9865   -2.8392    0.0000 H   0  0  0  0  0  0  0  0  0  0  0  0
    2.6297   -0.8172    0.0000 H   0  0  0  0  0  0  0  0  0  0  0  0
    2.0661   -1.3808    0.0000 H   0  0  0  0  0  0  0  0  0  0  0  0
    3.4618   -3.5768    0.0000 H   0  0  0  0  0  0  0  0  0  0  0  0
    3.3633   -2.8284    0.0000 H   0  0  0  0  0  0  0  0  0  0  0  0
    3.9892   -0.6573    0.0000 H   0  0  0  0  0  0  0  0  0  0  0  0
    3.6642   -1.7958    0.0000 H   0  0  0  0  0  0  0  0  0  0  0  0
    2.1042   -3.9707    0.0000 H   0  0  0  0  0  0  0  0  0  0  0  0
    2.3105   -4.7406    0.0000 H   0  0  0  0  0  0  0  0  0  0  0  0
    4.8680    0.4398    0.0000 H   0  0  0  0  0  0  0  0  0  0  0  0
    5.4049    3.7498    0.0000 H   0  0  0  0  0  0  0  0  0  0  0  0
    4.7944    2.2375    0.0000 H   0  0  0  0  0  0  0  0  0  0  0  0
    5.1929    1.5472    0.0000 H   0  0  0  0  0  0  0  0  0  0  0  0
    7.6739   -1.1802    0.0000 H   0  0  0  0  0  0  0  0  0  0  0  0
    5.7791   -1.9927    0.0000 H   0  0  0  0  0  0  0  0  0  0  0  0
    3.9283    3.7375    0.0000 H   0  0  0  0  0  0  0  0  0  0  0  0
    4.3269    3.0472    0.0000 H   0  0  0  0  0  0  0  0  0  0  0  0
    7.0292   -4.5802    0.0000 H   0  0  0  0  0  0  0  0  0  0  0  0
    6.2710    4.2498    0.0000 H   0  0  0  0  0  0  0  0  0  0  0  0
    5.9435   -2.3652    0.0000 H   0  0  0  0  0  0  0  0  0  0  0  0
    4.0020    4.9398    0.0000 H   0  0  0  0  0  0  0  0  0  0  0  0
  1 25  1  0  0  0  0
  2 16  1  0  0  0  0
  2 18  1  0  0  0  0
  3 17  1  0  0  0  0
  3 27  1  0  0  0  0
  4 21  1  0  0  0  0
  4 23  1  0  0  0  0
  5 22  1  0  0  0  0
  5 52  1  0  0  0  0
  6 26  1  0  0  0  0
  6 54  1  0  0  0  0
  7 28  2  0  0  0  0
  8 19  1  0  0  0  0
  8 28  1  0  0  0  0
  8 48  1  0  0  0  0
  9 28  1  0  0  0  0
  9 29  1  0  0  0  0
  9 51  1  0  0  0  0
 10 27  2  0  0  0  0
 10 29  1  0  0  0  0
 11 30  2  0  0  0  0
 11 31  1  0  0  0  0
 12 32  3  0  0  0  0
 13 14  1  0  0  0  0
 13 15  1  0  0  0  0
 13 33  1  0  0  0  0
 13 34  1  0  0  0  0
 14 16  1  0  0  0  0
 14 35  1  0  0  0  0
 14 36  1  0  0  0  0
 15 17  1  0  0  0  0
 15 37  1  0  0  0  0
 15 38  1  0  0  0  0
 16 39  1  0  0  0  0
 16 40  1  0  0  0  0
 17 41  1  0  0  0  0
 17 42  1  0  0  0  0
 18 19  1  0  0  0  0
 18 20  2  0  0  0  0
 19 24  2  0  0  0  0
 20 21  1  0  0  0  0
 20 43  1  0  0  0  0
 21 25  2  0  0  0  0
 22 23  1  0  0  0  0
 22 26  1  0  0  0  0
 22 44  1  0  0  0  0
 23 45  1  0  0  0  0
 23 46  1  0  0  0  0
 24 25  1  0  0  0  0
 24 47  1  0  0  0  0
 26 49  1  0  0  0  0
 26 50  1  0  0  0  0
 27 30  1  0  0  0  0
 29 31  2  0  0  0  0
 30 32  1  0  0  0  0
 31 53  1  0  0  0  0
M  END
> <PUBCHEM_COMPOUND_CID>
11784520

> <PUBCHEM_COMPOUND_CANONICALIZED>
1

> <PUBCHEM_CACTVS_COMPLEXITY>
651

> <PUBCHEM_CACTVS_HBOND_ACCEPTOR>
9

> <PUBCHEM_CACTVS_HBOND_DONOR>
4

> <PUBCHEM_CACTVS_ROTATABLE_BOND>
4

> <PUBCHEM_CACTVS_SUBSKEYS>
AAADceB7uAAEAAAAAAAAAAAAAAAAAAAAAAA8QAAAAAAAAAABwAAAHgIQCAAACB7hliY99pLIFgC4BTZndASiiC0xd2AB2AA/f4iP92PFspufeCjt1Rfb6CewYAwAAGAACAIAGAAAwAAQBAAwAAAAAAAAAA==

> <PUBCHEM_IUPAC_OPENEYE_NAME>
7-chloro-8-(2,3-dihydroxypropoxy)-3-oxo-11,17-dioxa-2,4,20,22-tetrazatricyclo[16.3.1.05,10]docosa-1(21),5,7,9,18(22),19-hexaene-19-carbonitrile

> <PUBCHEM_IUPAC_CAS_NAME>
7-chloro-8-(2,3-dihydroxypropoxy)-3-oxo-11,17-dioxa-2,4,20,22-tetrazatricyclo[16.3.1.05,10]docosa-1(21),5,7,9,18(22),19-hexaene-19-carbonitrile

> <PUBCHEM_IUPAC_NAME_MARKUP>
7-chloro-8-(2,3-dihydroxypropoxy)-3-oxo-11,17-dioxa-2,4,20,22-tetrazatricyclo[16.3.1.0<SUP>5,10</SUP>]docosa-1(21),5,7,9,18(22),19-hexaene-19-carbonitrile

> <PUBCHEM_IUPAC_NAME>
7-chloro-8-(2,3-dihydroxypropoxy)-3-oxo-11,17-dioxa-2,4,20,22-tetrazatricyclo[16.3.1.05,10]docosa-1(21),5,7,9,18(22),19-hexaene-19-carbonitrile

> <PUBCHEM_IUPAC_SYSTEMATIC_NAME>
8-[2,3-bis(oxidanyl)propoxy]-7-chloranyl-3-oxidanylidene-11,17-dioxa-2,4,20,22-tetrazatricyclo[16.3.1.05,10]docosa-1(21),5,7,9,18(22),19-hexaene-19-carbonitrile

> <PUBCHEM_IUPAC_TRADITIONAL_NAME>
7-chloro-8-glyceryloxy-3-keto-11,17-dioxa-2,4,20,22-tetrazatricyclo[16.3.1.05,10]docosa-1(21),5,7,9,18(22),19-hexaene-19-carbonitrile

> <PUBCHEM_IUPAC_INCHI>
InChI=1S/C20H22ClN5O6/c21-13-6-14-17(7-16(13)32-11-12(28)10-27)30-4-2-1-3-5-31-19-15(8-22)23-9-18(25-19)26-20(29)24-14/h6-7,9,12,27-28H,1-5,10-11H2,(H2,24,25,26,29)

> <PUBCHEM_IUPAC_INCHIKEY>
ZHRYDDVDLCQYQA-UHFFFAOYSA-N

> <PUBCHEM_XLOGP3_AA>
1.1

> <PUBCHEM_EXACT_MASS>
463.1258611

> <PUBCHEM_MOLECULAR_FORMULA>
C20H22ClN5O6

> <PUBCHEM_MOLECULAR_WEIGHT>
463.9

> <PUBCHEM_SMILES>
C1CCOC2=CC(=C(C=C2NC(=O)NC3=CN=C(C(=N3)OCC1)C#N)Cl)OCC(CO)O

> <PUBCHEM_OPENEYE_CAN_SMILES>
C1CCOC2=CC(=C(C=C2NC(=O)NC3=CN=C(C(=N3)OCC1)C#N)Cl)OCC(CO)O

> <PUBCHEM_OPENEYE_ISO_SMILES>
C1CCOC2=CC(=C(C=C2NC(=O)NC3=CN=C(C(=N3)OCC1)C#N)Cl)OCC(CO)O

> <PUBCHEM_CACTVS_TPSA>
159

> <PUBCHEM_MONOISOTOPIC_WEIGHT>
463.1258611

> <PUBCHEM_TOTAL_CHARGE>
0

> <PUBCHEM_HEAVY_ATOM_COUNT>
32

> <PUBCHEM_ATOM_DEF_STEREO_COUNT>
0

> <PUBCHEM_ATOM_UDEF_STEREO_COUNT>
1

> <PUBCHEM_BOND_DEF_STEREO_COUNT>
0

> <PUBCHEM_BOND_UDEF_STEREO_COUNT>
0

> <PUBCHEM_ISOTOPIC_ATOM_COUNT>
0

> <PUBCHEM_COMPONENT_COUNT>
1

> <PUBCHEM_CACTVS_TAUTO_COUNT>
-1

> <PUBCHEM_COORDINATE_TYPE>
1
5
255

> <PUBCHEM_BONDANNOTATIONS>
10  27  8
10  29  8
11  30  8
11  31  8
18  19  8
18  20  8
19  24  8
20  21  8
21  25  8
24  25  8
27  30  8
29  31  8
22  5  3

$$$$
