49830343
  -OEChem-03202501562D

 58 63  0     0  0  0  0  0  0999 V2000
    3.0000    0.8025    0.0000 F   0  0  0  0  0  0  0  0  0  0  0  0
    2.0000   -0.1975    0.0000 F   0  0  0  0  0  0  0  0  0  0  0  0
    4.0000   -0.1975    0.0000 F   0  0  0  0  0  0  0  0  0  0  0  0
   15.1141    2.6196    0.0000 O   0  0  0  0  0  0  0  0  0  0  0  0
   14.0392    3.8175    0.0000 O   0  0  0  0  0  0  0  0  0  0  0  0
    5.5981   -1.6975    0.0000 O   0  0  0  0  0  0  0  0  0  0  0  0
   11.6603   -1.1975    0.0000 N   0  0  0  0  0  0  0  0  0  0  0  0
   12.6065   -1.5022    0.0000 N   0  0  0  0  0  0  0  0  0  0  0  0
   10.7942    0.3025    0.0000 N   0  0  0  0  0  0  0  0  0  0  0  0
   10.7942   -2.6975    0.0000 N   0  0  0  0  0  0  0  0  0  0  0  0
    6.4641   -3.1975    0.0000 N   0  0  0  0  0  0  0  0  0  0  0  0
    4.7320   -3.1975    0.0000 N   0  0  0  0  0  0  0  0  0  0  0  0
   12.6065    0.1072    0.0000 C   0  0  0  0  0  0  0  0  0  0  0  0
   11.6603   -0.1975    0.0000 C   0  0  0  0  0  0  0  0  0  0  0  0
   12.9171    1.0577    0.0000 C   0  0  0  0  0  0  0  0  0  0  0  0
   10.7942   -1.6975    0.0000 C   0  0  0  0  0  0  0  0  0  0  0  0
    9.9282   -1.1975    0.0000 C   0  0  0  0  0  0  0  0  0  0  0  0
    9.0622   -1.6975    0.0000 C   0  0  0  0  0  0  0  0  0  0  0  0
   13.1901   -0.6975    0.0000 C   0  0  0  0  0  0  0  0  0  0  0  0
   13.8956    1.2639    0.0000 C   0  0  0  0  0  0  0  0  0  0  0  0
   14.2063    2.2145    0.0000 C   0  0  0  0  0  0  0  0  0  0  0  0
    9.9282   -0.1975    0.0000 C   0  0  0  0  0  0  0  0  0  0  0  0
   12.2493    1.8020    0.0000 C   0  0  0  0  0  0  0  0  0  0  0  0
   13.5385    2.9588    0.0000 C   0  0  0  0  0  0  0  0  0  0  0  0
   12.5600    2.7526    0.0000 C   0  0  0  0  0  0  0  0  0  0  0  0
    8.1962   -1.1975    0.0000 C   0  0  0  0  0  0  0  0  0  0  0  0
    9.0622   -2.6975    0.0000 C   0  0  0  0  0  0  0  0  0  0  0  0
    7.3301   -2.6975    0.0000 C   0  0  0  0  0  0  0  0  0  0  0  0
   15.0110    3.6083    0.0000 C   0  0  0  0  0  0  0  0  0  0  0  0
    7.3301   -1.6975    0.0000 C   0  0  0  0  0  0  0  0  0  0  0  0
    8.1962   -3.1975    0.0000 C   0  0  0  0  0  0  0  0  0  0  0  0
    3.8660   -2.6975    0.0000 C   0  0  0  0  0  0  0  0  0  0  0  0
    5.5981   -2.6975    0.0000 C   0  0  0  0  0  0  0  0  0  0  0  0
    3.0000   -1.1975    0.0000 C   0  0  0  0  0  0  0  0  0  0  0  0
    3.8660   -1.6975    0.0000 C   0  0  0  0  0  0  0  0  0  0  0  0
    3.0000   -3.1975    0.0000 C   0  0  0  0  0  0  0  0  0  0  0  0
    2.1340   -1.6975    0.0000 C   0  0  0  0  0  0  0  0  0  0  0  0
    2.1340   -2.6975    0.0000 C   0  0  0  0  0  0  0  0  0  0  0  0
    3.0000   -0.1975    0.0000 C   0  0  0  0  0  0  0  0  0  0  0  0
   13.8101   -0.6975    0.0000 H   0  0  0  0  0  0  0  0  0  0  0  0
   14.3097    0.8025    0.0000 H   0  0  0  0  0  0  0  0  0  0  0  0
    9.3913    0.1125    0.0000 H   0  0  0  0  0  0  0  0  0  0  0  0
   11.6426    1.6742    0.0000 H   0  0  0  0  0  0  0  0  0  0  0  0
   12.1459    3.2140    0.0000 H   0  0  0  0  0  0  0  0  0  0  0  0
    8.1962   -0.5775    0.0000 H   0  0  0  0  0  0  0  0  0  0  0  0
    9.5991   -3.0075    0.0000 H   0  0  0  0  0  0  0  0  0  0  0  0
   11.3312   -3.0075    0.0000 H   0  0  0  0  0  0  0  0  0  0  0  0
   10.2573   -3.0075    0.0000 H   0  0  0  0  0  0  0  0  0  0  0  0
   15.6310    3.6074    0.0000 H   0  0  0  0  0  0  0  0  0  0  0  0
   15.0771    4.2248    0.0000 H   0  0  0  0  0  0  0  0  0  0  0  0
    6.7932   -1.3875    0.0000 H   0  0  0  0  0  0  0  0  0  0  0  0
    8.1962   -3.8175    0.0000 H   0  0  0  0  0  0  0  0  0  0  0  0
    6.4641   -3.8175    0.0000 H   0  0  0  0  0  0  0  0  0  0  0  0
    4.7320   -3.8175    0.0000 H   0  0  0  0  0  0  0  0  0  0  0  0
    4.4030   -1.3875    0.0000 H   0  0  0  0  0  0  0  0  0  0  0  0
    3.0000   -3.8175    0.0000 H   0  0  0  0  0  0  0  0  0  0  0  0
    1.5970   -1.3875    0.0000 H   0  0  0  0  0  0  0  0  0  0  0  0
    1.5970   -3.0075    0.0000 H   0  0  0  0  0  0  0  0  0  0  0  0
  1 39  1  0  0  0  0
  2 39  1  0  0  0  0
  3 39  1  0  0  0  0
  4 21  1  0  0  0  0
  4 29  1  0  0  0  0
  5 24  1  0  0  0  0
  5 29  1  0  0  0  0
  6 33  2  0  0  0  0
  7  8  1  0  0  0  0
  7 14  1  0  0  0  0
  7 16  1  0  0  0  0
  8 19  2  0  0  0  0
  9 14  1  0  0  0  0
  9 22  2  0  0  0  0
 10 16  1  0  0  0  0
 10 47  1  0  0  0  0
 10 48  1  0  0  0  0
 11 28  1  0  0  0  0
 11 33  1  0  0  0  0
 11 53  1  0  0  0  0
 12 32  1  0  0  0  0
 12 33  1  0  0  0  0
 12 54  1  0  0  0  0
 13 14  2  0  0  0  0
 13 15  1  0  0  0  0
 13 19  1  0  0  0  0
 15 20  2  0  0  0  0
 15 23  1  0  0  0  0
 16 17  2  0  0  0  0
 17 18  1  0  0  0  0
 17 22  1  0  0  0  0
 18 26  2  0  0  0  0
 18 27  1  0  0  0  0
 19 40  1  0  0  0  0
 20 21  1  0  0  0  0
 20 41  1  0  0  0  0
 21 24  2  0  0  0  0
 22 42  1  0  0  0  0
 23 25  2  0  0  0  0
 23 43  1  0  0  0  0
 24 25  1  0  0  0  0
 25 44  1  0  0  0  0
 26 30  1  0  0  0  0
 26 45  1  0  0  0  0
 27 31  2  0  0  0  0
 27 46  1  0  0  0  0
 28 30  2  0  0  0  0
 28 31  1  0  0  0  0
 29 49  1  0  0  0  0
 29 50  1  0  0  0  0
 30 51  1  0  0  0  0
 31 52  1  0  0  0  0
 32 35  1  0  0  0  0
 32 36  2  0  0  0  0
 34 35  2  0  0  0  0
 34 37  1  0  0  0  0
 34 39  1  0  0  0  0
 35 55  1  0  0  0  0
 36 38  1  0  0  0  0
 36 56  1  0  0  0  0
 37 38  2  0  0  0  0
 37 57  1  0  0  0  0
 38 58  1  0  0  0  0
M  END
> <PUBCHEM_COMPOUND_CID>
49830343

> <PUBCHEM_COMPOUND_CANONICALIZED>
1

> <PUBCHEM_CACTVS_COMPLEXITY>
859

> <PUBCHEM_CACTVS_HBOND_ACCEPTOR>
9

> <PUBCHEM_CACTVS_HBOND_DONOR>
3

> <PUBCHEM_CACTVS_ROTATABLE_BOND>
4

> <PUBCHEM_CACTVS_SUBSKEYS>
AAADceB7sYAAAAAAAAAAAAAAAAAAAWJAAAA8YMEAAAAAAFgB9AAAHwAYAAAADAzBmxc9/p7IFACqAjZndACSjCsxoqAd2CAu7JidLuLE+duktCp83BPO6CeQ0PIOqAABQAAAQABQAAKAAACAAAAAAAAAAA==

> <PUBCHEM_IUPAC_OPENEYE_NAME>
1-[4-[7-amino-3-(1,3-benzodioxol-5-yl)pyrazolo[1,5-a]pyrimidin-6-yl]phenyl]-3-[3-(trifluoromethyl)phenyl]urea

> <PUBCHEM_IUPAC_CAS_NAME>
1-[4-[7-amino-3-(1,3-benzodioxol-5-yl)-6-pyrazolo[1,5-a]pyrimidinyl]phenyl]-3-[3-(trifluoromethyl)phenyl]urea

> <PUBCHEM_IUPAC_NAME_MARKUP>
1-[4-[7-amino-3-(1,3-benzodioxol-5-yl)pyrazolo[1,5-a]pyrimidin-6-yl]phenyl]-3-[3-(trifluoromethyl)phenyl]urea

> <PUBCHEM_IUPAC_NAME>
1-[4-[7-amino-3-(1,3-benzodioxol-5-yl)pyrazolo[1,5-a]pyrimidin-6-yl]phenyl]-3-[3-(trifluoromethyl)phenyl]urea

> <PUBCHEM_IUPAC_SYSTEMATIC_NAME>
1-[4-[7-azanyl-3-(1,3-benzodioxol-5-yl)pyrazolo[1,5-a]pyrimidin-6-yl]phenyl]-3-[3-(trifluoromethyl)phenyl]urea

> <PUBCHEM_IUPAC_TRADITIONAL_NAME>
1-[4-[7-amino-3-(1,3-benzodioxol-5-yl)pyrazolo[1,5-a]pyrimidin-6-yl]phenyl]-3-[3-(trifluoromethyl)phenyl]urea

> <PUBCHEM_IUPAC_INCHI>
InChI=1S/C27H19F3N6O3/c28-27(29,30)17-2-1-3-19(11-17)35-26(37)34-18-7-4-15(5-8-18)20-12-32-25-21(13-33-36(25)24(20)31)16-6-9-22-23(10-16)39-14-38-22/h1-13H,14,31H2,(H2,34,35,37)

> <PUBCHEM_IUPAC_INCHIKEY>
FFCFHBVSGILIJY-UHFFFAOYSA-N

> <PUBCHEM_XLOGP3_AA>
4.5

> <PUBCHEM_EXACT_MASS>
532.14707298

> <PUBCHEM_MOLECULAR_FORMULA>
C27H19F3N6O3

> <PUBCHEM_MOLECULAR_WEIGHT>
532.5

> <PUBCHEM_SMILES>
C1OC2=C(O1)C=C(C=C2)C3=C4N=CC(=C(N4N=C3)N)C5=CC=C(C=C5)NC(=O)NC6=CC=CC(=C6)C(F)(F)F

> <PUBCHEM_OPENEYE_CAN_SMILES>
C1OC2=C(O1)C=C(C=C2)C3=C4N=CC(=C(N4N=C3)N)C5=CC=C(C=C5)NC(=O)NC6=CC=CC(=C6)C(F)(F)F

> <PUBCHEM_OPENEYE_ISO_SMILES>
C1OC2=C(O1)C=C(C=C2)C3=C4N=CC(=C(N4N=C3)N)C5=CC=C(C=C5)NC(=O)NC6=CC=CC(=C6)C(F)(F)F

> <PUBCHEM_CACTVS_TPSA>
116

> <PUBCHEM_MONOISOTOPIC_WEIGHT>
532.14707298

> <PUBCHEM_TOTAL_CHARGE>
0

> <PUBCHEM_HEAVY_ATOM_COUNT>
39

> <PUBCHEM_ATOM_DEF_STEREO_COUNT>
0

> <PUBCHEM_ATOM_UDEF_STEREO_COUNT>
0

> <PUBCHEM_BOND_DEF_STEREO_COUNT>
0

> <PUBCHEM_BOND_UDEF_STEREO_COUNT>
0

> <PUBCHEM_ISOTOPIC_ATOM_COUNT>
0

> <PUBCHEM_COMPONENT_COUNT>
1

> <PUBCHEM_CACTVS_TAUTO_COUNT>
-1

> <PUBCHEM_COORDINATE_TYPE>
1
5
255

> <PUBCHEM_BONDANNOTATIONS>
13  14  8
13  19  8
15  20  8
15  23  8
16  17  8
17  22  8
18  26  8
18  27  8
20  21  8
21  24  8
23  25  8
24  25  8
26  30  8
27  31  8
28  30  8
28  31  8
32  35  8
32  36  8
34  35  8
34  37  8
36  38  8
37  38  8
7  14  8
7  16  8
7  8  8
8  19  8
9  14  8
9  22  8

$$$$
