11316975
  -OEChem-03202505472D

 56 61  0     0  0  0  0  0  0999 V2000
    7.1488    3.6066    0.0000 O   0  0  0  0  0  0  0  0  0  0  0  0
    2.0000   -1.1020    0.0000 O   0  0  0  0  0  0  0  0  0  0  0  0
    3.6283   -4.2229    0.0000 O   0  0  0  0  0  0  0  0  0  0  0  0
    4.3167    0.8741    0.0000 N   0  0  0  0  0  0  0  0  0  0  0  0
    5.7177    2.6308    0.0000 N   0  0  0  0  0  0  0  0  0  0  0  0
    2.5670   -2.7914    0.0000 N   0  0  0  0  0  0  0  0  0  0  0  0
    5.5883    4.3581    0.0000 N   0  0  0  0  0  0  0  0  0  0  0  0
    5.6108   -3.5515    0.0000 N   0  0  0  0  0  0  0  0  0  0  0  0
    6.7384   -2.3999    0.0000 N   0  0  0  0  0  0  0  0  0  0  0  0
    5.2177    0.4402    0.0000 C   0  0  0  0  0  0  0  0  0  0  0  0
    4.0942    1.8490    0.0000 C   0  0  0  0  0  0  0  0  0  0  0  0
    5.1239   -0.5972    0.0000 C   0  0  0  0  0  0  0  0  0  0  0  0
    6.1187    0.8741    0.0000 C   0  0  0  0  0  0  0  0  0  0  0  0
    4.1454   -0.7409    0.0000 C   0  0  0  0  0  0  0  0  0  0  0  0
    4.7177    2.6308    0.0000 C   0  0  0  0  0  0  0  0  0  0  0  0
    6.3412    1.8490    0.0000 C   0  0  0  0  0  0  0  0  0  0  0  0
    3.6697    0.1261    0.0000 C   0  0  0  0  0  0  0  0  0  0  0  0
    3.7000   -1.6363    0.0000 C   0  0  0  0  0  0  0  0  0  0  0  0
    5.9800   -1.1906    0.0000 C   0  0  0  0  0  0  0  0  0  0  0  0
    6.9883    0.3007    0.0000 C   0  0  0  0  0  0  0  0  0  0  0  0
    4.1626   -2.5229    0.0000 C   0  0  0  0  0  0  0  0  0  0  0  0
    6.9184   -0.7386    0.0000 C   0  0  0  0  0  0  0  0  0  0  0  0
    6.1516    3.5318    0.0000 C   0  0  0  0  0  0  0  0  0  0  0  0
    2.7139   -1.8022    0.0000 C   0  0  0  0  0  0  0  0  0  0  0  0
    5.1518   -2.6698    0.0000 C   0  0  0  0  0  0  0  0  0  0  0  0
    3.4624   -3.2368    0.0000 C   0  0  0  0  0  0  0  0  0  0  0  0
    5.8472   -1.9595    0.0000 C   0  0  0  0  0  0  0  0  0  0  0  0
    6.5967   -3.3838    0.0000 C   0  0  0  0  0  0  0  0  0  0  0  0
    6.0222    5.2590    0.0000 C   0  0  0  0  0  0  0  0  0  0  0  0
    4.5911    4.2833    0.0000 C   0  0  0  0  0  0  0  0  0  0  0  0
    5.2631   -4.4891    0.0000 C   0  0  0  0  0  0  0  0  0  0  0  0
    7.2348   -4.1538    0.0000 C   0  0  0  0  0  0  0  0  0  0  0  0
    5.9012   -5.2590    0.0000 C   0  0  0  0  0  0  0  0  0  0  0  0
    6.8871   -5.0914    0.0000 C   0  0  0  0  0  0  0  0  0  0  0  0
    3.7077    2.3338    0.0000 H   0  0  0  0  0  0  0  0  0  0  0  0
    3.5356    1.5800    0.0000 H   0  0  0  0  0  0  0  0  0  0  0  0
    4.8557    3.2353    0.0000 H   0  0  0  0  0  0  0  0  0  0  0  0
    4.1591    2.8998    0.0000 H   0  0  0  0  0  0  0  0  0  0  0  0
    6.8998    1.5800    0.0000 H   0  0  0  0  0  0  0  0  0  0  0  0
    6.7278    2.3338    0.0000 H   0  0  0  0  0  0  0  0  0  0  0  0
    3.0532    0.1915    0.0000 H   0  0  0  0  0  0  0  0  0  0  0  0
    5.9312   -1.8087    0.0000 H   0  0  0  0  0  0  0  0  0  0  0  0
    7.5437    0.5761    0.0000 H   0  0  0  0  0  0  0  0  0  0  0  0
    7.4320   -1.0859    0.0000 H   0  0  0  0  0  0  0  0  0  0  0  0
    2.0173   -3.0782    0.0000 H   0  0  0  0  0  0  0  0  0  0  0  0
    5.7433   -1.3483    0.0000 H   0  0  0  0  0  0  0  0  0  0  0  0
    6.5808    4.9900    0.0000 H   0  0  0  0  0  0  0  0  0  0  0  0
    6.2912    5.8176    0.0000 H   0  0  0  0  0  0  0  0  0  0  0  0
    5.4636    5.5280    0.0000 H   0  0  0  0  0  0  0  0  0  0  0  0
    4.5447    4.9016    0.0000 H   0  0  0  0  0  0  0  0  0  0  0  0
    3.9728    4.2370    0.0000 H   0  0  0  0  0  0  0  0  0  0  0  0
    4.6374    3.6651    0.0000 H   0  0  0  0  0  0  0  0  0  0  0  0
    4.6519   -4.5930    0.0000 H   0  0  0  0  0  0  0  0  0  0  0  0
    7.8460   -4.0498    0.0000 H   0  0  0  0  0  0  0  0  0  0  0  0
    5.6856   -5.8403    0.0000 H   0  0  0  0  0  0  0  0  0  0  0  0
    7.2827   -5.5687    0.0000 H   0  0  0  0  0  0  0  0  0  0  0  0
  1 23  2  0  0  0  0
  2 24  2  0  0  0  0
  3 26  2  0  0  0  0
  4 10  1  0  0  0  0
  4 11  1  0  0  0  0
  4 17  1  0  0  0  0
  5 15  1  0  0  0  0
  5 16  1  0  0  0  0
  5 23  1  0  0  0  0
  6 24  1  0  0  0  0
  6 26  1  0  0  0  0
  6 45  1  0  0  0  0
  7 23  1  0  0  0  0
  7 29  1  0  0  0  0
  7 30  1  0  0  0  0
  8 25  1  0  0  0  0
  8 28  1  0  0  0  0
  8 31  1  0  0  0  0
  9 27  1  0  0  0  0
  9 28  2  0  0  0  0
 10 12  1  0  0  0  0
 10 13  2  0  0  0  0
 11 15  1  0  0  0  0
 11 35  1  0  0  0  0
 11 36  1  0  0  0  0
 12 14  1  0  0  0  0
 12 19  2  0  0  0  0
 13 16  1  0  0  0  0
 13 20  1  0  0  0  0
 14 17  2  0  0  0  0
 14 18  1  0  0  0  0
 15 37  1  0  0  0  0
 15 38  1  0  0  0  0
 16 39  1  0  0  0  0
 16 40  1  0  0  0  0
 17 41  1  0  0  0  0
 18 21  2  0  0  0  0
 18 24  1  0  0  0  0
 19 22  1  0  0  0  0
 19 42  1  0  0  0  0
 20 22  2  0  0  0  0
 20 43  1  0  0  0  0
 21 25  1  0  0  0  0
 21 26  1  0  0  0  0
 22 44  1  0  0  0  0
 25 27  2  0  0  0  0
 27 46  1  0  0  0  0
 28 32  1  0  0  0  0
 29 47  1  0  0  0  0
 29 48  1  0  0  0  0
 29 49  1  0  0  0  0
 30 50  1  0  0  0  0
 30 51  1  0  0  0  0
 30 52  1  0  0  0  0
 31 33  2  0  0  0  0
 31 53  1  0  0  0  0
 32 34  2  0  0  0  0
 32 54  1  0  0  0  0
 33 34  1  0  0  0  0
 33 55  1  0  0  0  0
 34 56  1  0  0  0  0
M  END
> <PUBCHEM_COMPOUND_CID>
11316975

> <PUBCHEM_COMPOUND_CANONICALIZED>
1

> <PUBCHEM_CACTVS_COMPLEXITY>
918

> <PUBCHEM_CACTVS_HBOND_ACCEPTOR>
4

> <PUBCHEM_CACTVS_HBOND_DONOR>
1

> <PUBCHEM_CACTVS_ROTATABLE_BOND>
2

> <PUBCHEM_CACTVS_SUBSKEYS>
AAADceB7sAAAAAAAAAAAAAAAAAAAAWLEAAA8QAAABYAAAFix/gAAHgAQAAAADAjBnwQ/8P/MGACoAzd3dACCgC0xEqAJ2CE4dNiIaPrA3ZGUIAhohiLIySccicCegAACAAACAAAAAAQAAAQAAAAAAAAAAA==

> <PUBCHEM_IUPAC_OPENEYE_NAME>
3-(4-imidazo[1,2-a]pyridin-3-yl-2,5-dioxo-pyrrol-3-yl)-N,N-dimethyl-1,10-diazatricyclo[6.4.1.04,13]trideca-2,4,6,8(13)-tetraene-10-carboxamide

> <PUBCHEM_IUPAC_CAS_NAME>
3-[4-(3-imidazo[1,2-a]pyridinyl)-2,5-dioxo-3-pyrrolyl]-N,N-dimethyl-1,10-diazatricyclo[6.4.1.04,13]trideca-2,4,6,8(13)-tetraene-10-carboxamide

> <PUBCHEM_IUPAC_NAME_MARKUP>
3-(4-imidazo[1,2-a]pyridin-3-yl-2,5-dioxopyrrol-3-yl)-<I>N</I>,<I>N</I>-dimethyl-1,10-diazatricyclo[6.4.1.0<SUP>4,13</SUP>]trideca-2,4,6,8(13)-tetraene-10-carboxamide

> <PUBCHEM_IUPAC_NAME>
3-(4-imidazo[1,2-a]pyridin-3-yl-2,5-dioxopyrrol-3-yl)-N,N-dimethyl-1,10-diazatricyclo[6.4.1.04,13]trideca-2,4,6,8(13)-tetraene-10-carboxamide

> <PUBCHEM_IUPAC_SYSTEMATIC_NAME>
3-[4-imidazo[1,2-a]pyridin-3-yl-2,5-bis(oxidanylidene)pyrrol-3-yl]-N,N-dimethyl-1,10-diazatricyclo[6.4.1.04,13]trideca-2,4,6,8(13)-tetraene-10-carboxamide

> <PUBCHEM_IUPAC_TRADITIONAL_NAME>
3-(4-imidazo[1,2-a]pyridin-3-yl-2,5-diketo-3-pyrrolin-3-yl)-N,N-dimethyl-1,10-diazatricyclo[6.4.1.04,13]trideca-2,4,6,8(13)-tetraene-10-carboxamide

> <PUBCHEM_IUPAC_INCHI>
InChI=1S/C25H22N6O3/c1-28(2)25(34)30-11-10-29-14-17(16-7-5-6-15(13-30)22(16)29)20-21(24(33)27-23(20)32)18-12-26-19-8-3-4-9-31(18)19/h3-9,12,14H,10-11,13H2,1-2H3,(H,27,32,33)

> <PUBCHEM_IUPAC_INCHIKEY>
BMXGRFBSHSEZOP-UHFFFAOYSA-N

> <PUBCHEM_XLOGP3_AA>
1.5

> <PUBCHEM_EXACT_MASS>
454.17533859

> <PUBCHEM_MOLECULAR_FORMULA>
C25H22N6O3

> <PUBCHEM_MOLECULAR_WEIGHT>
454.5

> <PUBCHEM_SMILES>
CN(C)C(=O)N1CCN2C=C(C3=CC=CC(=C32)C1)C4=C(C(=O)NC4=O)C5=CN=C6N5C=CC=C6

> <PUBCHEM_OPENEYE_CAN_SMILES>
CN(C)C(=O)N1CCN2C=C(C3=CC=CC(=C32)C1)C4=C(C(=O)NC4=O)C5=CN=C6N5C=CC=C6

> <PUBCHEM_OPENEYE_ISO_SMILES>
CN(C)C(=O)N1CCN2C=C(C3=CC=CC(=C32)C1)C4=C(C(=O)NC4=O)C5=CN=C6N5C=CC=C6

> <PUBCHEM_CACTVS_TPSA>
92

> <PUBCHEM_MONOISOTOPIC_WEIGHT>
454.17533859

> <PUBCHEM_TOTAL_CHARGE>
0

> <PUBCHEM_HEAVY_ATOM_COUNT>
34

> <PUBCHEM_ATOM_DEF_STEREO_COUNT>
0

> <PUBCHEM_ATOM_UDEF_STEREO_COUNT>
0

> <PUBCHEM_BOND_DEF_STEREO_COUNT>
0

> <PUBCHEM_BOND_UDEF_STEREO_COUNT>
0

> <PUBCHEM_ISOTOPIC_ATOM_COUNT>
0

> <PUBCHEM_COMPONENT_COUNT>
1

> <PUBCHEM_CACTVS_TAUTO_COUNT>
-1

> <PUBCHEM_COORDINATE_TYPE>
1
5
255

> <PUBCHEM_BONDANNOTATIONS>
10  12  8
10  13  8
12  14  8
12  19  8
13  20  8
14  17  8
19  22  8
20  22  8
25  27  8
28  32  8
31  33  8
32  34  8
33  34  8
4  10  8
4  17  8
8  25  8
8  28  8
8  31  8
9  27  8
9  28  8

$$$$
