11524200
  -OEChem-03202501272D

 41 44  0     0  0  0  0  0  0999 V2000
    2.0000    3.8870    0.0000 Cl  0  0  0  0  0  0  0  0  0  0  0  0
    5.4641   -2.1130    0.0000 F   0  0  0  0  0  0  0  0  0  0  0  0
    7.1962    0.8870    0.0000 F   0  0  0  0  0  0  0  0  0  0  0  0
    7.1962   -1.1130    0.0000 O   0  0  0  0  0  0  0  0  0  0  0  0
    9.0084   -3.9177    0.0000 N   0  0  0  0  0  0  0  0  0  0  0  0
    7.1962   -4.1130    0.0000 N   0  0  0  0  0  0  0  0  0  0  0  0
    3.7320    0.8870    0.0000 N   0  0  0  0  0  0  0  0  0  0  0  0
    4.5981    2.3870    0.0000 N   0  0  0  0  0  0  0  0  0  0  0  0
    3.7320    3.8870    0.0000 N   0  0  0  0  0  0  0  0  0  0  0  0
    5.4641    3.8870    0.0000 N   0  0  0  0  0  0  0  0  0  0  0  0
    8.0622   -2.6130    0.0000 C   0  0  0  0  0  0  0  0  0  0  0  0
    9.0084   -2.3082    0.0000 C   0  0  0  0  0  0  0  0  0  0  0  0
    8.0622   -3.6130    0.0000 C   0  0  0  0  0  0  0  0  0  0  0  0
    7.1962   -2.1130    0.0000 C   0  0  0  0  0  0  0  0  0  0  0  0
    9.5920   -3.1130    0.0000 C   0  0  0  0  0  0  0  0  0  0  0  0
    9.3191   -1.3577    0.0000 C   0  0  0  0  0  0  0  0  0  0  0  0
    6.3301   -2.6130    0.0000 C   0  0  0  0  0  0  0  0  0  0  0  0
    6.3301   -0.6130    0.0000 C   0  0  0  0  0  0  0  0  0  0  0  0
    6.3301   -3.6130    0.0000 C   0  0  0  0  0  0  0  0  0  0  0  0
    4.5981    0.3870    0.0000 C   0  0  0  0  0  0  0  0  0  0  0  0
    5.4641   -1.1130    0.0000 C   0  0  0  0  0  0  0  0  0  0  0  0
    6.3301    0.3870    0.0000 C   0  0  0  0  0  0  0  0  0  0  0  0
    4.5981   -0.6130    0.0000 C   0  0  0  0  0  0  0  0  0  0  0  0
    5.4641    0.8870    0.0000 C   0  0  0  0  0  0  0  0  0  0  0  0
    3.7320    1.8870    0.0000 C   0  0  0  0  0  0  0  0  0  0  0  0
    2.8660    2.3870    0.0000 C   0  0  0  0  0  0  0  0  0  0  0  0
    2.8660    3.3870    0.0000 C   0  0  0  0  0  0  0  0  0  0  0  0
    4.5981    3.3870    0.0000 C   0  0  0  0  0  0  0  0  0  0  0  0
   10.2120   -3.1130    0.0000 H   0  0  0  0  0  0  0  0  0  0  0  0
    9.2010   -4.5070    0.0000 H   0  0  0  0  0  0  0  0  0  0  0  0
    9.9084   -1.5503    0.0000 H   0  0  0  0  0  0  0  0  0  0  0  0
    9.5117   -0.7684    0.0000 H   0  0  0  0  0  0  0  0  0  0  0  0
    8.7297   -1.1651    0.0000 H   0  0  0  0  0  0  0  0  0  0  0  0
    5.7932   -2.3030    0.0000 H   0  0  0  0  0  0  0  0  0  0  0  0
    5.7932   -3.9230    0.0000 H   0  0  0  0  0  0  0  0  0  0  0  0
    4.0611   -0.9230    0.0000 H   0  0  0  0  0  0  0  0  0  0  0  0
    5.4641    1.5070    0.0000 H   0  0  0  0  0  0  0  0  0  0  0  0
    3.1951    0.5770    0.0000 H   0  0  0  0  0  0  0  0  0  0  0  0
    2.3291    2.0770    0.0000 H   0  0  0  0  0  0  0  0  0  0  0  0
    5.4641    4.5070    0.0000 H   0  0  0  0  0  0  0  0  0  0  0  0
    6.0010    3.5770    0.0000 H   0  0  0  0  0  0  0  0  0  0  0  0
  1 27  1  0  0  0  0
  2 21  1  0  0  0  0
  3 22  1  0  0  0  0
  4 14  1  0  0  0  0
  4 18  1  0  0  0  0
  5 13  1  0  0  0  0
  5 15  1  0  0  0  0
  5 30  1  0  0  0  0
  6 13  2  0  0  0  0
  6 19  1  0  0  0  0
  7 20  1  0  0  0  0
  7 25  1  0  0  0  0
  7 38  1  0  0  0  0
  8 25  1  0  0  0  0
  8 28  2  0  0  0  0
  9 27  2  0  0  0  0
  9 28  1  0  0  0  0
 10 28  1  0  0  0  0
 10 40  1  0  0  0  0
 10 41  1  0  0  0  0
 11 12  1  0  0  0  0
 11 13  1  0  0  0  0
 11 14  2  0  0  0  0
 12 15  2  0  0  0  0
 12 16  1  0  0  0  0
 14 17  1  0  0  0  0
 15 29  1  0  0  0  0
 16 31  1  0  0  0  0
 16 32  1  0  0  0  0
 16 33  1  0  0  0  0
 17 19  2  0  0  0  0
 17 34  1  0  0  0  0
 18 21  2  0  0  0  0
 18 22  1  0  0  0  0
 19 35  1  0  0  0  0
 20 23  2  0  0  0  0
 20 24  1  0  0  0  0
 21 23  1  0  0  0  0
 22 24  2  0  0  0  0
 23 36  1  0  0  0  0
 24 37  1  0  0  0  0
 25 26  2  0  0  0  0
 26 27  1  0  0  0  0
 26 39  1  0  0  0  0
M  END
> <PUBCHEM_COMPOUND_CID>
11524200

> <PUBCHEM_COMPOUND_CANONICALIZED>
1

> <PUBCHEM_CACTVS_COMPLEXITY>
524

> <PUBCHEM_CACTVS_HBOND_ACCEPTOR>
8

> <PUBCHEM_CACTVS_HBOND_DONOR>
3

> <PUBCHEM_CACTVS_ROTATABLE_BOND>
4

> <PUBCHEM_CACTVS_SUBSKEYS>
AAADccB7oYAEAAAAAAAAAAAAAAAAAWAAAAA8WIAAAAAAAFgB/gAAHwIQAAAADA7Bmyw/9t7JlACgAjZnZACCiCmxJ6AJ2aA+bpiMLmLE+duGPCju0BvI6CewQAAOgEAAAAAAAAAAgAAAAAAAAAAAAAAAAA==

> <PUBCHEM_IUPAC_OPENEYE_NAME>
6-chloro-N4-[3,5-difluoro-4-[(3-methyl-1H-pyrrolo[2,3-b]pyridin-4-yl)oxy]phenyl]pyrimidine-2,4-diamine

> <PUBCHEM_IUPAC_CAS_NAME>
6-chloro-N4-[3,5-difluoro-4-[(3-methyl-1H-pyrrolo[2,3-b]pyridin-4-yl)oxy]phenyl]pyrimidine-2,4-diamine

> <PUBCHEM_IUPAC_NAME_MARKUP>
6-chloro-4-<I>N</I>-[3,5-difluoro-4-[(3-methyl-1<I>H</I>-pyrrolo[2,3-b]pyridin-4-yl)oxy]phenyl]pyrimidine-2,4-diamine

> <PUBCHEM_IUPAC_NAME>
6-chloro-4-N-[3,5-difluoro-4-[(3-methyl-1H-pyrrolo[2,3-b]pyridin-4-yl)oxy]phenyl]pyrimidine-2,4-diamine

> <PUBCHEM_IUPAC_SYSTEMATIC_NAME>
N4-[3,5-bis(fluoranyl)-4-[(3-methyl-1H-pyrrolo[2,3-b]pyridin-4-yl)oxy]phenyl]-6-chloranyl-pyrimidine-2,4-diamine

> <PUBCHEM_IUPAC_TRADITIONAL_NAME>
(2-amino-6-chloro-pyrimidin-4-yl)-[3,5-difluoro-4-[(3-methyl-1H-pyrrolo[2,3-b]pyridin-4-yl)oxy]phenyl]amine

> <PUBCHEM_IUPAC_INCHI>
InChI=1S/C18H13ClF2N6O/c1-8-7-24-17-15(8)12(2-3-23-17)28-16-10(20)4-9(5-11(16)21)25-14-6-13(19)26-18(22)27-14/h2-7H,1H3,(H,23,24)(H3,22,25,26,27)

> <PUBCHEM_IUPAC_INCHIKEY>
NRSGWEVTVGZDFC-UHFFFAOYSA-N

> <PUBCHEM_XLOGP3_AA>
4.2

> <PUBCHEM_EXACT_MASS>
402.0807431

> <PUBCHEM_MOLECULAR_FORMULA>
C18H13ClF2N6O

> <PUBCHEM_MOLECULAR_WEIGHT>
402.8

> <PUBCHEM_SMILES>
CC1=CNC2=NC=CC(=C12)OC3=C(C=C(C=C3F)NC4=CC(=NC(=N4)N)Cl)F

> <PUBCHEM_OPENEYE_CAN_SMILES>
CC1=CNC2=NC=CC(=C12)OC3=C(C=C(C=C3F)NC4=CC(=NC(=N4)N)Cl)F

> <PUBCHEM_OPENEYE_ISO_SMILES>
CC1=CNC2=NC=CC(=C12)OC3=C(C=C(C=C3F)NC4=CC(=NC(=N4)N)Cl)F

> <PUBCHEM_CACTVS_TPSA>
102

> <PUBCHEM_MONOISOTOPIC_WEIGHT>
402.0807431

> <PUBCHEM_TOTAL_CHARGE>
0

> <PUBCHEM_HEAVY_ATOM_COUNT>
28

> <PUBCHEM_ATOM_DEF_STEREO_COUNT>
0

> <PUBCHEM_ATOM_UDEF_STEREO_COUNT>
0

> <PUBCHEM_BOND_DEF_STEREO_COUNT>
0

> <PUBCHEM_BOND_UDEF_STEREO_COUNT>
0

> <PUBCHEM_ISOTOPIC_ATOM_COUNT>
0

> <PUBCHEM_COMPONENT_COUNT>
1

> <PUBCHEM_CACTVS_TAUTO_COUNT>
-1

> <PUBCHEM_COORDINATE_TYPE>
1
5
255

> <PUBCHEM_BONDANNOTATIONS>
11  12  8
11  13  8
11  14  8
12  15  8
14  17  8
17  19  8
18  21  8
18  22  8
20  23  8
20  24  8
21  23  8
22  24  8
25  26  8
26  27  8
5  13  8
5  15  8
6  13  8
6  19  8
8  25  8
8  28  8
9  27  8
9  28  8

$$$$
