447961
  -OEChem-03202505202D

 35 37  0     0  0  0  0  0  0999 V2000
    4.0015   -0.6857    0.0000 S   0  0  0  0  0  0  0  0  0  0  0  0
   11.9002    0.8088    0.0000 O   0  5  0  0  0  0  0  0  0  0  0  0
   11.0342   -0.6912    0.0000 O   0  0  0  0  0  0  0  0  0  0  0  0
    7.5701    0.3088    0.0000 N   0  0  0  0  0  0  0  0  0  0  0  0
    5.8381    0.3088    0.0000 N   0  0  0  0  0  0  0  0  0  0  0  0
    2.5233   -0.0276    0.0000 N   0  0  0  0  0  0  0  0  0  0  0  0
    6.7041    1.8088    0.0000 N   0  0  0  0  0  0  0  0  0  0  0  0
   11.0342    0.3088    0.0000 N   0  3  0  0  0  0  0  0  0  0  0  0
    2.6166   -1.8072    0.0000 N   0  0  0  0  0  0  0  0  0  0  0  0
    4.1060    0.3088    0.0000 C   0  0  0  0  0  0  0  0  0  0  0  0
    4.9720    0.8088    0.0000 C   0  0  0  0  0  0  0  0  0  0  0  0
    3.1925    0.7155    0.0000 C   0  0  0  0  0  0  0  0  0  0  0  0
    8.4361    0.8088    0.0000 C   0  0  0  0  0  0  0  0  0  0  0  0
    6.7041    0.8088    0.0000 C   0  0  0  0  0  0  0  0  0  0  0  0
    9.3022    0.3088    0.0000 C   0  0  0  0  0  0  0  0  0  0  0  0
    4.9720    1.8088    0.0000 C   0  0  0  0  0  0  0  0  0  0  0  0
    8.4361    1.8088    0.0000 C   0  0  0  0  0  0  0  0  0  0  0  0
   10.1682    0.8088    0.0000 C   0  0  0  0  0  0  0  0  0  0  0  0
    2.9846    1.6937    0.0000 C   0  0  0  0  0  0  0  0  0  0  0  0
    3.0233   -0.8936    0.0000 C   0  0  0  0  0  0  0  0  0  0  0  0
    9.3022    2.3088    0.0000 C   0  0  0  0  0  0  0  0  0  0  0  0
   10.1682    1.8088    0.0000 C   0  0  0  0  0  0  0  0  0  0  0  0
    5.8381    2.3088    0.0000 C   0  0  0  0  0  0  0  0  0  0  0  0
    7.5701   -0.3112    0.0000 H   0  0  0  0  0  0  0  0  0  0  0  0
    9.3022   -0.3112    0.0000 H   0  0  0  0  0  0  0  0  0  0  0  0
    4.4351    2.1188    0.0000 H   0  0  0  0  0  0  0  0  0  0  0  0
    7.8992    2.1188    0.0000 H   0  0  0  0  0  0  0  0  0  0  0  0
    3.5910    1.8226    0.0000 H   0  0  0  0  0  0  0  0  0  0  0  0
    2.8556    2.3001    0.0000 H   0  0  0  0  0  0  0  0  0  0  0  0
    2.3781    1.5648    0.0000 H   0  0  0  0  0  0  0  0  0  0  0  0
    9.3022    2.9288    0.0000 H   0  0  0  0  0  0  0  0  0  0  0  0
   10.7051    2.1188    0.0000 H   0  0  0  0  0  0  0  0  0  0  0  0
    5.8381    2.9288    0.0000 H   0  0  0  0  0  0  0  0  0  0  0  0
    2.0000   -1.8720    0.0000 H   0  0  0  0  0  0  0  0  0  0  0  0
    2.9810   -2.3088    0.0000 H   0  0  0  0  0  0  0  0  0  0  0  0
  1 10  1  0  0  0  0
  1 20  1  0  0  0  0
  2  8  1  0  0  0  0
  3  8  2  0  0  0  0
  4 13  1  0  0  0  0
  4 14  1  0  0  0  0
  4 24  1  0  0  0  0
  5 11  2  0  0  0  0
  5 14  1  0  0  0  0
  6 12  1  0  0  0  0
  6 20  2  0  0  0  0
  7 14  2  0  0  0  0
  7 23  1  0  0  0  0
  8 18  1  0  0  0  0
  9 20  1  0  0  0  0
  9 34  1  0  0  0  0
  9 35  1  0  0  0  0
 10 11  1  0  0  0  0
 10 12  2  0  0  0  0
 11 16  1  0  0  0  0
 12 19  1  0  0  0  0
 13 15  2  0  0  0  0
 13 17  1  0  0  0  0
 15 18  1  0  0  0  0
 15 25  1  0  0  0  0
 16 23  2  0  0  0  0
 16 26  1  0  0  0  0
 17 21  2  0  0  0  0
 17 27  1  0  0  0  0
 18 22  2  0  0  0  0
 19 28  1  0  0  0  0
 19 29  1  0  0  0  0
 19 30  1  0  0  0  0
 21 22  1  0  0  0  0
 21 31  1  0  0  0  0
 22 32  1  0  0  0  0
 23 33  1  0  0  0  0
M  CHG  2   2  -1   8   1
M  END
> <PUBCHEM_COMPOUND_CID>
447961

> <PUBCHEM_COMPOUND_CANONICALIZED>
1

> <PUBCHEM_CACTVS_COMPLEXITY>
423

> <PUBCHEM_CACTVS_HBOND_ACCEPTOR>
8

> <PUBCHEM_CACTVS_HBOND_DONOR>
2

> <PUBCHEM_CACTVS_ROTATABLE_BOND>
3

> <PUBCHEM_CACTVS_SUBSKEYS>
AAADccBzsABAAAAAAAAAAAAAAAAAAWAAAAA8QAAAAAAAAAAB8AAAHAQUAAAACAjBVgQ/0ZbYUAilATRnZwCC8KlxCrkp2DQ4ZJqIKKLg2dGEJAhokAJIyCcQAAAAAAAAAAQAAAAAAAAACAAAAAAAAAAAAA==

> <PUBCHEM_IUPAC_OPENEYE_NAME>
4-methyl-5-[2-(3-nitroanilino)pyrimidin-4-yl]thiazol-2-amine

> <PUBCHEM_IUPAC_CAS_NAME>
4-methyl-5-[2-(3-nitroanilino)-4-pyrimidinyl]-2-thiazolamine

> <PUBCHEM_IUPAC_NAME_MARKUP>
4-methyl-5-[2-(3-nitroanilino)pyrimidin-4-yl]-1,3-thiazol-2-amine

> <PUBCHEM_IUPAC_NAME>
4-methyl-5-[2-(3-nitroanilino)pyrimidin-4-yl]-1,3-thiazol-2-amine

> <PUBCHEM_IUPAC_SYSTEMATIC_NAME>
4-methyl-5-[2-[(3-nitrophenyl)amino]pyrimidin-4-yl]-1,3-thiazol-2-amine

> <PUBCHEM_IUPAC_TRADITIONAL_NAME>
[4-(2-amino-4-methyl-thiazol-5-yl)pyrimidin-2-yl]-(3-nitrophenyl)amine

> <PUBCHEM_IUPAC_INCHI>
InChI=1S/C14H12N6O2S/c1-8-12(23-13(15)17-8)11-5-6-16-14(19-11)18-9-3-2-4-10(7-9)20(21)22/h2-7H,1H3,(H2,15,17)(H,16,18,19)

> <PUBCHEM_IUPAC_INCHIKEY>
DYTKVFHLKPDNRW-UHFFFAOYSA-N

> <PUBCHEM_XLOGP3_AA>
2.7

> <PUBCHEM_EXACT_MASS>
328.07424482

> <PUBCHEM_MOLECULAR_FORMULA>
C14H12N6O2S

> <PUBCHEM_MOLECULAR_WEIGHT>
328.35

> <PUBCHEM_SMILES>
CC1=C(SC(=N1)N)C2=NC(=NC=C2)NC3=CC(=CC=C3)[N+](=O)[O-]

> <PUBCHEM_OPENEYE_CAN_SMILES>
CC1=C(SC(=N1)N)C2=NC(=NC=C2)NC3=CC(=CC=C3)[N+](=O)[O-]

> <PUBCHEM_OPENEYE_ISO_SMILES>
CC1=C(SC(=N1)N)C2=NC(=NC=C2)NC3=CC(=CC=C3)[N+](=O)[O-]

> <PUBCHEM_CACTVS_TPSA>
151

> <PUBCHEM_MONOISOTOPIC_WEIGHT>
328.07424482

> <PUBCHEM_TOTAL_CHARGE>
0

> <PUBCHEM_HEAVY_ATOM_COUNT>
23

> <PUBCHEM_ATOM_DEF_STEREO_COUNT>
0

> <PUBCHEM_ATOM_UDEF_STEREO_COUNT>
0

> <PUBCHEM_BOND_DEF_STEREO_COUNT>
0

> <PUBCHEM_BOND_UDEF_STEREO_COUNT>
0

> <PUBCHEM_ISOTOPIC_ATOM_COUNT>
0

> <PUBCHEM_COMPONENT_COUNT>
1

> <PUBCHEM_CACTVS_TAUTO_COUNT>
-1

> <PUBCHEM_COORDINATE_TYPE>
1
5
255

> <PUBCHEM_BONDANNOTATIONS>
1  10  8
1  20  8
10  12  8
11  16  8
13  15  8
13  17  8
15  18  8
16  23  8
17  21  8
18  22  8
21  22  8
5  11  8
5  14  8
6  12  8
6  20  8
7  14  8
7  23  8

$$$$
