10478569
  -OEChem-03202505482D

 51 54  0     0  0  0  0  0  0999 V2000
    8.0622    2.5439    0.0000 F   0  0  0  0  0  0  0  0  0  0  0  0
    4.5981    2.5439    0.0000 F   0  0  0  0  0  0  0  0  0  0  0  0
   12.0458   -2.2651    0.0000 O   0  0  0  0  0  0  0  0  0  0  0  0
    4.5981   -0.4561    0.0000 O   0  0  0  0  0  0  0  0  0  0  0  0
    2.8660    0.5439    0.0000 O   0  0  0  0  0  0  0  0  0  0  0  0
    8.9282   -1.9561    0.0000 N   0  0  0  0  0  0  0  0  0  0  0  0
    8.0622    0.5439    0.0000 N   0  0  0  0  0  0  0  0  0  0  0  0
    8.0622   -2.4561    0.0000 N   0  0  0  0  0  0  0  0  0  0  0  0
    7.1962   -0.9561    0.0000 N   0  0  0  0  0  0  0  0  0  0  0  0
   12.0458   -0.6471    0.0000 N   0  0  0  0  0  0  0  0  0  0  0  0
   12.9969   -0.9561    0.0000 N   0  0  0  0  0  0  0  0  0  0  0  0
    3.7320    1.0439    0.0000 N   0  0  0  0  0  0  0  0  0  0  0  0
    9.8744   -0.6514    0.0000 C   0  0  0  0  0  0  0  0  0  0  0  0
   10.1851    0.2991    0.0000 C   0  0  0  0  0  0  0  0  0  0  0  0
    8.9282   -0.9561    0.0000 C   0  0  0  0  0  0  0  0  0  0  0  0
   10.4580   -1.4561    0.0000 C   0  0  0  0  0  0  0  0  0  0  0  0
    9.8744   -2.2608    0.0000 C   0  0  0  0  0  0  0  0  0  0  0  0
   11.1636    0.5054    0.0000 C   0  0  0  0  0  0  0  0  0  0  0  0
    9.5172    1.0434    0.0000 C   0  0  0  0  0  0  0  0  0  0  0  0
    8.0622   -0.4561    0.0000 C   0  0  0  0  0  0  0  0  0  0  0  0
   11.4580   -1.4561    0.0000 C   0  0  0  0  0  0  0  0  0  0  0  0
    7.1962   -1.9561    0.0000 C   0  0  0  0  0  0  0  0  0  0  0  0
    7.1962    1.0439    0.0000 C   0  0  0  0  0  0  0  0  0  0  0  0
    6.3301    0.5439    0.0000 C   0  0  0  0  0  0  0  0  0  0  0  0
   12.9969   -1.9561    0.0000 C   0  0  0  0  0  0  0  0  0  0  0  0
    7.1962    2.0439    0.0000 C   0  0  0  0  0  0  0  0  0  0  0  0
    5.4641    1.0439    0.0000 C   0  0  0  0  0  0  0  0  0  0  0  0
    6.3301    2.5439    0.0000 C   0  0  0  0  0  0  0  0  0  0  0  0
    5.4641    2.0439    0.0000 C   0  0  0  0  0  0  0  0  0  0  0  0
   13.8059   -2.5439    0.0000 C   0  0  0  0  0  0  0  0  0  0  0  0
    4.5981    0.5439    0.0000 C   0  0  0  0  0  0  0  0  0  0  0  0
    2.0000    1.0439    0.0000 C   0  0  0  0  0  0  0  0  0  0  0  0
   10.3777    0.8885    0.0000 H   0  0  0  0  0  0  0  0  0  0  0  0
   10.0670   -2.8502    0.0000 H   0  0  0  0  0  0  0  0  0  0  0  0
   11.2914   -0.1013    0.0000 H   0  0  0  0  0  0  0  0  0  0  0  0
   11.7703    0.6332    0.0000 H   0  0  0  0  0  0  0  0  0  0  0  0
   11.0357    1.1120    0.0000 H   0  0  0  0  0  0  0  0  0  0  0  0
    9.9787    1.4575    0.0000 H   0  0  0  0  0  0  0  0  0  0  0  0
    9.1032    1.5049    0.0000 H   0  0  0  0  0  0  0  0  0  0  0  0
    9.0558    0.6294    0.0000 H   0  0  0  0  0  0  0  0  0  0  0  0
    8.5991    0.8539    0.0000 H   0  0  0  0  0  0  0  0  0  0  0  0
    6.6592   -2.2661    0.0000 H   0  0  0  0  0  0  0  0  0  0  0  0
    6.3301   -0.0761    0.0000 H   0  0  0  0  0  0  0  0  0  0  0  0
    6.3301    3.1639    0.0000 H   0  0  0  0  0  0  0  0  0  0  0  0
   13.4415   -3.0455    0.0000 H   0  0  0  0  0  0  0  0  0  0  0  0
   14.3075   -2.9083    0.0000 H   0  0  0  0  0  0  0  0  0  0  0  0
   14.1703   -2.0423    0.0000 H   0  0  0  0  0  0  0  0  0  0  0  0
    3.7320    1.6639    0.0000 H   0  0  0  0  0  0  0  0  0  0  0  0
    2.3100    1.5808    0.0000 H   0  0  0  0  0  0  0  0  0  0  0  0
    1.4631    1.3539    0.0000 H   0  0  0  0  0  0  0  0  0  0  0  0
    1.6900    0.5070    0.0000 H   0  0  0  0  0  0  0  0  0  0  0  0
  1 26  1  0  0  0  0
  2 29  1  0  0  0  0
  3 21  1  0  0  0  0
  3 25  1  0  0  0  0
  4 31  2  0  0  0  0
  5 12  1  0  0  0  0
  5 32  1  0  0  0  0
  6  8  1  0  0  0  0
  6 15  1  0  0  0  0
  6 17  1  0  0  0  0
  7 20  1  0  0  0  0
  7 23  1  0  0  0  0
  7 41  1  0  0  0  0
  8 22  2  0  0  0  0
  9 20  2  0  0  0  0
  9 22  1  0  0  0  0
 10 11  1  0  0  0  0
 10 21  2  0  0  0  0
 11 25  2  0  0  0  0
 12 31  1  0  0  0  0
 12 48  1  0  0  0  0
 13 14  1  0  0  0  0
 13 15  2  0  0  0  0
 13 16  1  0  0  0  0
 14 18  1  0  0  0  0
 14 19  1  0  0  0  0
 14 33  1  0  0  0  0
 15 20  1  0  0  0  0
 16 17  2  0  0  0  0
 16 21  1  0  0  0  0
 17 34  1  0  0  0  0
 18 35  1  0  0  0  0
 18 36  1  0  0  0  0
 18 37  1  0  0  0  0
 19 38  1  0  0  0  0
 19 39  1  0  0  0  0
 19 40  1  0  0  0  0
 22 42  1  0  0  0  0
 23 24  1  0  0  0  0
 23 26  2  0  0  0  0
 24 27  2  0  0  0  0
 24 43  1  0  0  0  0
 25 30  1  0  0  0  0
 26 28  1  0  0  0  0
 27 29  1  0  0  0  0
 27 31  1  0  0  0  0
 28 29  2  0  0  0  0
 28 44  1  0  0  0  0
 30 45  1  0  0  0  0
 30 46  1  0  0  0  0
 30 47  1  0  0  0  0
 32 49  1  0  0  0  0
 32 50  1  0  0  0  0
 32 51  1  0  0  0  0
M  END
> <PUBCHEM_COMPOUND_CID>
10478569

> <PUBCHEM_COMPOUND_CANONICALIZED>
1

> <PUBCHEM_CACTVS_COMPLEXITY>
663

> <PUBCHEM_CACTVS_HBOND_ACCEPTOR>
10

> <PUBCHEM_CACTVS_HBOND_DONOR>
2

> <PUBCHEM_CACTVS_ROTATABLE_BOND>
6

> <PUBCHEM_CACTVS_SUBSKEYS>
AAADceB7sYAAAAAAAAAAAAAAAAAAAWLAAAA8QAAAAAAAAFgB/AAAHwAcAAAADQjBng4/8LbYFECqAzd3dACShC89kqA32CE4fNiIbvrA/JmesYhu2API6ee8mQKOgAAAQAAAAAAAAACAAAAAAAAAAAAAAA==

> <PUBCHEM_IUPAC_OPENEYE_NAME>
2,4-difluoro-5-[[5-isopropyl-6-(5-methyl-1,3,4-oxadiazol-2-yl)pyrrolo[2,1-f][1,2,4]triazin-4-yl]amino]-N-methoxy-benzamide

> <PUBCHEM_IUPAC_CAS_NAME>
2,4-difluoro-N-methoxy-5-[[6-(5-methyl-1,3,4-oxadiazol-2-yl)-5-propan-2-yl-4-pyrrolo[2,1-f][1,2,4]triazinyl]amino]benzamide

> <PUBCHEM_IUPAC_NAME_MARKUP>
2,4-difluoro-<I>N</I>-methoxy-5-[[6-(5-methyl-1,3,4-oxadiazol-2-yl)-5-propan-2-ylpyrrolo[2,1-f][1,2,4]triazin-4-yl]amino]benzamide

> <PUBCHEM_IUPAC_NAME>
2,4-difluoro-N-methoxy-5-[[6-(5-methyl-1,3,4-oxadiazol-2-yl)-5-propan-2-ylpyrrolo[2,1-f][1,2,4]triazin-4-yl]amino]benzamide

> <PUBCHEM_IUPAC_SYSTEMATIC_NAME>
2,4-bis(fluoranyl)-N-methoxy-5-[[6-(5-methyl-1,3,4-oxadiazol-2-yl)-5-propan-2-yl-pyrrolo[2,1-f][1,2,4]triazin-4-yl]amino]benzamide

> <PUBCHEM_IUPAC_TRADITIONAL_NAME>
2,4-difluoro-5-[[5-isopropyl-6-(5-methyl-1,3,4-oxadiazol-2-yl)pyrrolo[2,1-f][1,2,4]triazin-4-yl]amino]-N-methoxy-benzamide

> <PUBCHEM_IUPAC_INCHI>
InChI=1S/C20H19F2N7O3/c1-9(2)16-12(20-27-26-10(3)32-20)7-29-17(16)18(23-8-24-29)25-15-5-11(19(30)28-31-4)13(21)6-14(15)22/h5-9H,1-4H3,(H,28,30)(H,23,24,25)

> <PUBCHEM_IUPAC_INCHIKEY>
DSBPVMDUESDKNK-UHFFFAOYSA-N

> <PUBCHEM_XLOGP3_AA>
2.8

> <PUBCHEM_EXACT_MASS>
443.15174382

> <PUBCHEM_MOLECULAR_FORMULA>
C20H19F2N7O3

> <PUBCHEM_MOLECULAR_WEIGHT>
443.4

> <PUBCHEM_SMILES>
CC1=NN=C(O1)C2=CN3C(=C2C(C)C)C(=NC=N3)NC4=C(C=C(C(=C4)C(=O)NOC)F)F

> <PUBCHEM_OPENEYE_CAN_SMILES>
CC1=NN=C(O1)C2=CN3C(=C2C(C)C)C(=NC=N3)NC4=C(C=C(C(=C4)C(=O)NOC)F)F

> <PUBCHEM_OPENEYE_ISO_SMILES>
CC1=NN=C(O1)C2=CN3C(=C2C(C)C)C(=NC=N3)NC4=C(C=C(C(=C4)C(=O)NOC)F)F

> <PUBCHEM_CACTVS_TPSA>
119

> <PUBCHEM_MONOISOTOPIC_WEIGHT>
443.15174382

> <PUBCHEM_TOTAL_CHARGE>
0

> <PUBCHEM_HEAVY_ATOM_COUNT>
32

> <PUBCHEM_ATOM_DEF_STEREO_COUNT>
0

> <PUBCHEM_ATOM_UDEF_STEREO_COUNT>
0

> <PUBCHEM_BOND_DEF_STEREO_COUNT>
0

> <PUBCHEM_BOND_UDEF_STEREO_COUNT>
0

> <PUBCHEM_ISOTOPIC_ATOM_COUNT>
0

> <PUBCHEM_COMPONENT_COUNT>
1

> <PUBCHEM_CACTVS_TAUTO_COUNT>
-1

> <PUBCHEM_COORDINATE_TYPE>
1
5
255

> <PUBCHEM_BONDANNOTATIONS>
10  11  8
10  21  8
11  25  8
13  15  8
13  16  8
15  20  8
16  17  8
23  24  8
23  26  8
24  27  8
26  28  8
27  29  8
28  29  8
3  21  8
3  25  8
6  15  8
6  17  8
6  8  8
8  22  8
9  20  8
9  22  8

$$$$
