23133323
  -OEChem-03202506562D

 56 58  0     0  0  0  0  0  0999 V2000
   10.9222    0.5999    0.0000 Br  0  0  0  0  0  0  0  0  0  0  0  0
    4.9611   11.2240    0.0000 Cl  0  0  0  0  0  0  0  0  0  0  0  0
    7.4584    0.6400    0.0000 F   0  0  0  0  0  0  0  0  0  0  0  0
    4.0010    5.6744    0.0000 O   0  0  0  0  0  0  0  0  0  0  0  0
    4.0010    3.6744    0.0000 O   0  0  0  0  0  0  0  0  0  0  0  0
    1.4030    8.1744    0.0000 N   0  0  0  0  0  0  0  0  0  0  0  0
    7.4931    5.7091    0.0000 N   0  0  0  0  0  0  0  0  0  0  0  0
    7.4815    2.6398    0.0000 N   0  0  0  0  0  0  0  0  0  0  0  0
    8.3991    4.1536    0.0000 N   0  0  0  0  0  0  0  0  0  0  0  0
    3.1350    7.1744    0.0000 C   0  0  0  0  0  0  0  0  0  0  0  0
    2.2690    6.6744    0.0000 C   0  0  0  0  0  0  0  0  0  0  0  0
    3.1350    8.1744    0.0000 C   0  0  0  0  0  0  0  0  0  0  0  0
    1.4030    7.1744    0.0000 C   0  0  0  0  0  0  0  0  0  0  0  0
    2.2690    8.6744    0.0000 C   0  0  0  0  0  0  0  0  0  0  0  0
    4.0010    6.6744    0.0000 C   0  0  0  0  0  0  0  0  0  0  0  0
    0.5369    8.6744    0.0000 C   0  0  0  0  0  0  0  0  0  0  0  0
    4.8671    5.1744    0.0000 C   0  0  0  0  0  0  0  0  0  0  0  0
    4.8671    4.1744    0.0000 C   0  0  0  0  0  0  0  0  0  0  0  0
    5.7331    5.6744    0.0000 C   0  0  0  0  0  0  0  0  0  0  0  0
    6.5991    5.1744    0.0000 C   0  0  0  0  0  0  0  0  0  0  0  0
    6.5991    4.1744    0.0000 C   0  0  0  0  0  0  0  0  0  0  0  0
    5.7331    3.6744    0.0000 C   0  0  0  0  0  0  0  0  0  0  0  0
    7.4931    3.6398    0.0000 C   0  0  0  0  0  0  0  0  0  0  0  0
    8.3991    5.1953    0.0000 C   0  0  0  0  0  0  0  0  0  0  0  0
    4.0010    2.6745    0.0000 C   0  0  0  0  0  0  0  0  0  0  0  0
    8.3417    2.1299    0.0000 C   0  0  0  0  0  0  0  0  0  0  0  0
    8.3301    1.1299    0.0000 C   0  0  0  0  0  0  0  0  0  0  0  0
    9.2134    2.6198    0.0000 C   0  0  0  0  0  0  0  0  0  0  0  0
    9.1903    0.6200    0.0000 C   0  0  0  0  0  0  0  0  0  0  0  0
   10.0736    2.1098    0.0000 C   0  0  0  0  0  0  0  0  0  0  0  0
   10.0620    1.1099    0.0000 C   0  0  0  0  0  0  0  0  0  0  0  0
    3.1350    6.5544    0.0000 H   0  0  0  0  0  0  0  0  0  0  0  0
    1.8705    6.1995    0.0000 H   0  0  0  0  0  0  0  0  0  0  0  0
    2.6675    6.1995    0.0000 H   0  0  0  0  0  0  0  0  0  0  0  0
    3.7456    8.0668    0.0000 H   0  0  0  0  0  0  0  0  0  0  0  0
    3.3471    8.7571    0.0000 H   0  0  0  0  0  0  0  0  0  0  0  0
    0.7924    7.2821    0.0000 H   0  0  0  0  0  0  0  0  0  0  0  0
    1.1909    6.5918    0.0000 H   0  0  0  0  0  0  0  0  0  0  0  0
    2.6675    9.1494    0.0000 H   0  0  0  0  0  0  0  0  0  0  0  0
    1.8705    9.1494    0.0000 H   0  0  0  0  0  0  0  0  0  0  0  0
    4.6116    6.5668    0.0000 H   0  0  0  0  0  0  0  0  0  0  0  0
    4.2131    7.2571    0.0000 H   0  0  0  0  0  0  0  0  0  0  0  0
    0.8469    9.2114    0.0000 H   0  0  0  0  0  0  0  0  0  0  0  0
    0.0000    8.9844    0.0000 H   0  0  0  0  0  0  0  0  0  0  0  0
    0.2269    8.1375    0.0000 H   0  0  0  0  0  0  0  0  0  0  0  0
    5.7331    6.2944    0.0000 H   0  0  0  0  0  0  0  0  0  0  0  0
    5.7331    3.0544    0.0000 H   0  0  0  0  0  0  0  0  0  0  0  0
    6.9410    2.3361    0.0000 H   0  0  0  0  0  0  0  0  0  0  0  0
    8.9349    5.5073    0.0000 H   0  0  0  0  0  0  0  0  0  0  0  0
    3.3810    2.6745    0.0000 H   0  0  0  0  0  0  0  0  0  0  0  0
    4.0010    2.0544    0.0000 H   0  0  0  0  0  0  0  0  0  0  0  0
    4.6210    2.6745    0.0000 H   0  0  0  0  0  0  0  0  0  0  0  0
    9.2206    3.2398    0.0000 H   0  0  0  0  0  0  0  0  0  0  0  0
    9.1831    0.0000    0.0000 H   0  0  0  0  0  0  0  0  0  0  0  0
   10.6141    2.4136    0.0000 H   0  0  0  0  0  0  0  0  0  0  0  0
    5.9611   11.2240    0.0000 H   0  0  0  0  0  0  0  0  0  0  0  0
  1 31  1  0  0  0  0
  2 56  1  0  0  0  0
  3 27  1  0  0  0  0
  4 15  1  0  0  0  0
  4 17  1  0  0  0  0
  5 18  1  0  0  0  0
  5 25  1  0  0  0  0
  6 13  1  0  0  0  0
  6 14  1  0  0  0  0
  6 16  1  0  0  0  0
  7 20  1  0  0  0  0
  7 24  2  0  0  0  0
  8 23  1  0  0  0  0
  8 26  1  0  0  0  0
  8 48  1  0  0  0  0
  9 23  2  0  0  0  0
  9 24  1  0  0  0  0
 10 11  1  0  0  0  0
 10 12  1  0  0  0  0
 10 15  1  0  0  0  0
 10 32  1  0  0  0  0
 11 13  1  0  0  0  0
 11 33  1  0  0  0  0
 11 34  1  0  0  0  0
 12 14  1  0  0  0  0
 12 35  1  0  0  0  0
 12 36  1  0  0  0  0
 13 37  1  0  0  0  0
 13 38  1  0  0  0  0
 14 39  1  0  0  0  0
 14 40  1  0  0  0  0
 15 41  1  0  0  0  0
 15 42  1  0  0  0  0
 16 43  1  0  0  0  0
 16 44  1  0  0  0  0
 16 45  1  0  0  0  0
 17 18  2  0  0  0  0
 17 19  1  0  0  0  0
 18 22  1  0  0  0  0
 19 20  2  0  0  0  0
 19 46  1  0  0  0  0
 20 21  1  0  0  0  0
 21 22  2  0  0  0  0
 21 23  1  0  0  0  0
 22 47  1  0  0  0  0
 24 49  1  0  0  0  0
 25 50  1  0  0  0  0
 25 51  1  0  0  0  0
 25 52  1  0  0  0  0
 26 27  2  0  0  0  0
 26 28  1  0  0  0  0
 27 29  1  0  0  0  0
 28 30  2  0  0  0  0
 28 53  1  0  0  0  0
 29 31  2  0  0  0  0
 29 54  1  0  0  0  0
 30 31  1  0  0  0  0
 30 55  1  0  0  0  0
M  END
> <PUBCHEM_COMPOUND_CID>
23133323

> <PUBCHEM_COMPOUND_CANONICALIZED>
1

> <PUBCHEM_CACTVS_COMPLEXITY>
539

> <PUBCHEM_CACTVS_HBOND_ACCEPTOR>
7

> <PUBCHEM_CACTVS_HBOND_DONOR>
2

> <PUBCHEM_CACTVS_ROTATABLE_BOND>
6

> <PUBCHEM_CACTVS_SUBSKEYS>
AAADceB7sQAEEAAAAAAAAAAAAAAAAAAAAAA8eIEAAAAAAACx9AAAHwBQAAABrQzhng439vfIFACgAyZjZACCiCkxIqQJ2CA+7LiNLuLE+duGPCru0BvK6jew0BMOIEAhAgACQABAgEIEAASAAAAAAAAAAA==

> <PUBCHEM_IUPAC_OPENEYE_NAME>
N-(4-bromo-2-fluoro-phenyl)-6-methoxy-7-[(1-methyl-4-piperidyl)methoxy]quinazolin-4-amine;hydrochloride

> <PUBCHEM_IUPAC_CAS_NAME>
N-(4-bromo-2-fluorophenyl)-6-methoxy-7-[(1-methyl-4-piperidinyl)methoxy]-4-quinazolinamine;hydrochloride

> <PUBCHEM_IUPAC_NAME_MARKUP>
<I>N</I>-(4-bromo-2-fluorophenyl)-6-methoxy-7-[(1-methylpiperidin-4-yl)methoxy]quinazolin-4-amine;hydrochloride

> <PUBCHEM_IUPAC_NAME>
N-(4-bromo-2-fluorophenyl)-6-methoxy-7-[(1-methylpiperidin-4-yl)methoxy]quinazolin-4-amine;hydrochloride

> <PUBCHEM_IUPAC_SYSTEMATIC_NAME>
N-(4-bromanyl-2-fluoranyl-phenyl)-6-methoxy-7-[(1-methylpiperidin-4-yl)methoxy]quinazolin-4-amine;hydrochloride

> <PUBCHEM_IUPAC_TRADITIONAL_NAME>
(4-bromo-2-fluoro-phenyl)-[6-methoxy-7-[(1-methyl-4-piperidyl)methoxy]quinazolin-4-yl]amine;hydrochloride

> <PUBCHEM_IUPAC_INCHI>
InChI=1S/C22H24BrFN4O2.ClH/c1-28-7-5-14(6-8-28)12-30-21-11-19-16(10-20(21)29-2)22(26-13-25-19)27-18-4-3-15(23)9-17(18)24;/h3-4,9-11,13-14H,5-8,12H2,1-2H3,(H,25,26,27);1H

> <PUBCHEM_IUPAC_INCHIKEY>
KVBQCJXMSFJOFP-UHFFFAOYSA-N

> <PUBCHEM_EXACT_MASS>
510.08334

> <PUBCHEM_MOLECULAR_FORMULA>
C22H25BrClFN4O2

> <PUBCHEM_MOLECULAR_WEIGHT>
511.8

> <PUBCHEM_SMILES>
CN1CCC(CC1)COC2=C(C=C3C(=C2)N=CN=C3NC4=C(C=C(C=C4)Br)F)OC.Cl

> <PUBCHEM_OPENEYE_CAN_SMILES>
CN1CCC(CC1)COC2=C(C=C3C(=C2)N=CN=C3NC4=C(C=C(C=C4)Br)F)OC.Cl

> <PUBCHEM_OPENEYE_ISO_SMILES>
CN1CCC(CC1)COC2=C(C=C3C(=C2)N=CN=C3NC4=C(C=C(C=C4)Br)F)OC.Cl

> <PUBCHEM_CACTVS_TPSA>
59.5

> <PUBCHEM_MONOISOTOPIC_WEIGHT>
510.08334

> <PUBCHEM_TOTAL_CHARGE>
0

> <PUBCHEM_HEAVY_ATOM_COUNT>
31

> <PUBCHEM_ATOM_DEF_STEREO_COUNT>
0

> <PUBCHEM_ATOM_UDEF_STEREO_COUNT>
0

> <PUBCHEM_BOND_DEF_STEREO_COUNT>
0

> <PUBCHEM_BOND_UDEF_STEREO_COUNT>
0

> <PUBCHEM_ISOTOPIC_ATOM_COUNT>
0

> <PUBCHEM_COMPONENT_COUNT>
2

> <PUBCHEM_CACTVS_TAUTO_COUNT>
-1

> <PUBCHEM_COORDINATE_TYPE>
1
5
255

> <PUBCHEM_BONDANNOTATIONS>
17  18  8
17  19  8
18  22  8
19  20  8
20  21  8
21  22  8
21  23  8
26  27  8
26  28  8
27  29  8
28  30  8
29  31  8
30  31  8
7  20  8
7  24  8
9  23  8
9  24  8

$$$$
