44370150
  -OEChem-03202500222D

 65 71  0     1  0  0  0  0  0999 V2000
    2.0000    3.4599    0.0000 Br  0  0  0  0  0  0  0  0  0  0  0  0
    6.3090   -3.5914    0.0000 Cl  0  0  0  0  0  0  0  0  0  0  0  0
    6.1295    3.1060    0.0000 Cl  0  0  0  0  0  0  0  0  0  0  0  0
    5.8675   -0.0103    0.0000 O   0  0  0  0  0  0  0  0  0  0  0  0
    3.2426   -0.3422    0.0000 O   0  0  0  0  0  0  0  0  0  0  0  0
    5.3041   -2.6837    0.0000 O   0  0  0  0  0  0  0  0  0  0  0  0
    3.8640   -2.2433    0.0000 O   0  0  0  0  0  0  0  0  0  0  0  0
    3.5998    1.3526    0.0000 O   0  0  0  0  0  0  0  0  0  0  0  0
   10.8826   -1.7552    0.0000 O   0  0  0  0  0  0  0  0  0  0  0  0
   10.8826    1.7552    0.0000 O   0  0  0  0  0  0  0  0  0  0  0  0
    3.9570    3.0474    0.0000 O   0  0  0  0  0  0  0  0  0  0  0  0
    7.1567   -1.1671    0.0000 N   0  0  0  0  0  0  0  0  0  0  0  0
    7.1567    1.1671    0.0000 N   0  0  0  0  0  0  0  0  0  0  0  0
   11.1556    0.0000    0.0000 N   0  0  0  0  0  0  0  0  0  0  0  0
    6.1782   -0.9609    0.0000 C   0  0  3  0  0  0  0  0  0  0  0  0
    5.5103   -1.7052    0.0000 C   0  0  3  0  0  0  0  0  0  0  0  0
    4.5318   -1.4990    0.0000 C   0  0  3  0  0  0  0  0  0  0  0  0
    4.2212   -0.5484    0.0000 C   0  0  3  0  0  0  0  0  0  0  0  0
    4.8890    0.1959    0.0000 C   0  0  3  0  0  0  0  0  0  0  0  0
    7.8937   -0.5000    0.0000 C   0  0  0  0  0  0  0  0  0  0  0  0
    8.7597   -1.0000    0.0000 C   0  0  0  0  0  0  0  0  0  0  0  0
    7.5618   -2.0749    0.0000 C   0  0  0  0  0  0  0  0  0  0  0  0
    7.8937    0.5000    0.0000 C   0  0  0  0  0  0  0  0  0  0  0  0
    8.5505   -1.9718    0.0000 C   0  0  0  0  0  0  0  0  0  0  0  0
    8.7597    1.0000    0.0000 C   0  0  0  0  0  0  0  0  0  0  0  0
    9.6257   -0.5000    0.0000 C   0  0  0  0  0  0  0  0  0  0  0  0
    9.6257    0.5000    0.0000 C   0  0  0  0  0  0  0  0  0  0  0  0
    4.5783    1.1464    0.0000 C   0  0  0  0  0  0  0  0  0  0  0  0
    8.5505    1.9718    0.0000 C   0  0  0  0  0  0  0  0  0  0  0  0
    7.1253   -3.0138    0.0000 C   0  0  0  0  0  0  0  0  0  0  0  0
    7.5618    2.0749    0.0000 C   0  0  0  0  0  0  0  0  0  0  0  0
    9.1713   -2.8006    0.0000 C   0  0  0  0  0  0  0  0  0  0  0  0
   10.5720   -0.8047    0.0000 C   0  0  0  0  0  0  0  0  0  0  0  0
   10.5720    0.8047    0.0000 C   0  0  0  0  0  0  0  0  0  0  0  0
    7.7267   -3.8567    0.0000 C   0  0  0  0  0  0  0  0  0  0  0  0
    8.7566   -3.7494    0.0000 C   0  0  0  0  0  0  0  0  0  0  0  0
    9.1713    2.8006    0.0000 C   0  0  0  0  0  0  0  0  0  0  0  0
    2.5748   -1.0865    0.0000 C   0  0  0  0  0  0  0  0  0  0  0  0
    7.1253    3.0138    0.0000 C   0  0  0  0  0  0  0  0  0  0  0  0
    8.7566    3.7494    0.0000 C   0  0  0  0  0  0  0  0  0  0  0  0
    7.7267    3.8567    0.0000 C   0  0  0  0  0  0  0  0  0  0  0  0
    3.2892    2.3031    0.0000 C   0  0  0  0  0  0  0  0  0  0  0  0
    2.3107    2.5094    0.0000 C   0  0  0  0  0  0  0  0  0  0  0  0
    6.5922   -0.4994    0.0000 H   0  0  0  0  0  0  0  0  0  0  0  0
    6.0632   -1.9857    0.0000 H   0  0  0  0  0  0  0  0  0  0  0  0
    3.9251   -1.3711    0.0000 H   0  0  0  0  0  0  0  0  0  0  0  0
    4.0285    0.0409    0.0000 H   0  0  0  0  0  0  0  0  0  0  0  0
    5.3031    0.6573    0.0000 H   0  0  0  0  0  0  0  0  0  0  0  0
    5.1922    1.2337    0.0000 H   0  0  0  0  0  0  0  0  0  0  0  0
    4.5989    1.7660    0.0000 H   0  0  0  0  0  0  0  0  0  0  0  0
    6.5500    1.0392    0.0000 H   0  0  0  0  0  0  0  0  0  0  0  0
    4.7149   -2.8763    0.0000 H   0  0  0  0  0  0  0  0  0  0  0  0
    9.7871   -2.7292    0.0000 H   0  0  0  0  0  0  0  0  0  0  0  0
    3.2573   -2.1154    0.0000 H   0  0  0  0  0  0  0  0  0  0  0  0
   11.7756    0.0000    0.0000 H   0  0  0  0  0  0  0  0  0  0  0  0
    7.4719   -4.4219    0.0000 H   0  0  0  0  0  0  0  0  0  0  0  0
    9.1225   -4.2499    0.0000 H   0  0  0  0  0  0  0  0  0  0  0  0
    9.7871    2.7292    0.0000 H   0  0  0  0  0  0  0  0  0  0  0  0
    2.1133   -0.6724    0.0000 H   0  0  0  0  0  0  0  0  0  0  0  0
    2.1607   -1.5480    0.0000 H   0  0  0  0  0  0  0  0  0  0  0  0
    3.0363   -1.5006    0.0000 H   0  0  0  0  0  0  0  0  0  0  0  0
    9.1225    4.2499    0.0000 H   0  0  0  0  0  0  0  0  0  0  0  0
    7.4719    4.4219    0.0000 H   0  0  0  0  0  0  0  0  0  0  0  0
    1.6968    2.4220    0.0000 H   0  0  0  0  0  0  0  0  0  0  0  0
    2.2901    1.8897    0.0000 H   0  0  0  0  0  0  0  0  0  0  0  0
  1 43  1  0  0  0  0
  2 30  1  0  0  0  0
  3 39  1  0  0  0  0
  4 15  1  0  0  0  0
  4 19  1  0  0  0  0
  5 18  1  0  0  0  0
  5 38  1  0  0  0  0
  6 16  1  0  0  0  0
  6 52  1  0  0  0  0
  7 17  1  0  0  0  0
  7 54  1  0  0  0  0
  8 28  1  0  0  0  0
  8 42  1  0  0  0  0
  9 33  2  0  0  0  0
 10 34  2  0  0  0  0
 11 42  2  0  0  0  0
 12 15  1  0  0  0  0
 12 20  1  0  0  0  0
 12 22  1  0  0  0  0
 13 23  1  0  0  0  0
 13 31  1  0  0  0  0
 13 51  1  0  0  0  0
 14 33  1  0  0  0  0
 14 34  1  0  0  0  0
 14 55  1  0  0  0  0
 15 16  1  0  0  0  0
 15 44  1  0  0  0  0
 16 17  1  0  0  0  0
 16 45  1  0  0  0  0
 17 18  1  0  0  0  0
 17 46  1  0  0  0  0
 18 19  1  0  0  0  0
 18 47  1  0  0  0  0
 19 28  1  0  0  0  0
 19 48  1  0  0  0  0
 20 21  1  0  0  0  0
 20 23  2  0  0  0  0
 21 24  1  0  0  0  0
 21 26  2  0  0  0  0
 22 24  2  0  0  0  0
 22 30  1  0  0  0  0
 23 25  1  0  0  0  0
 24 32  1  0  0  0  0
 25 27  2  0  0  0  0
 25 29  1  0  0  0  0
 26 27  1  0  0  0  0
 26 33  1  0  0  0  0
 27 34  1  0  0  0  0
 28 49  1  0  0  0  0
 28 50  1  0  0  0  0
 29 31  2  0  0  0  0
 29 37  1  0  0  0  0
 30 35  2  0  0  0  0
 31 39  1  0  0  0  0
 32 36  2  0  0  0  0
 32 53  1  0  0  0  0
 35 36  1  0  0  0  0
 35 56  1  0  0  0  0
 36 57  1  0  0  0  0
 37 40  2  0  0  0  0
 37 58  1  0  0  0  0
 38 59  1  0  0  0  0
 38 60  1  0  0  0  0
 38 61  1  0  0  0  0
 39 41  2  0  0  0  0
 40 41  1  0  0  0  0
 40 62  1  0  0  0  0
 41 63  1  0  0  0  0
 42 43  1  0  0  0  0
 43 64  1  0  0  0  0
 43 65  1  0  0  0  0
M  END
> <PUBCHEM_COMPOUND_CID>
44370150

> <PUBCHEM_COMPOUND_CANONICALIZED>
1

> <PUBCHEM_CACTVS_COMPLEXITY>
1140

> <PUBCHEM_CACTVS_HBOND_ACCEPTOR>
8

> <PUBCHEM_CACTVS_HBOND_DONOR>
4

> <PUBCHEM_CACTVS_ROTATABLE_BOND>
6

> <PUBCHEM_CACTVS_SUBSKEYS>
AAADceB7PAAGEAAAAAAAAAAAAAAAAWLFgAA0YMEAAAAAAFgB/gAAHgJQCAABTB7hniYyyPPNlgCoAyXyXACCgCQlFSAI2SEoVtgrcPLBl5HeYQhnhCDbyQf9+c6eyAACYAASADCQAATAACQAYAAAAAAAAA==

> <PUBCHEM_IUPAC_OPENEYE_NAME>
[6-(5,21-dichloro-12,14-dioxo-3,13,23-triazahexacyclo[14.7.0.02,10.04,9.011,15.017,22]tricosa-1,4(9),5,7,10,15,17(22),18,20-nonaen-3-yl)-4,5-dihydroxy-3-methoxy-tetrahydropyran-2-yl]methyl 2-bromoacetate

> <PUBCHEM_IUPAC_CAS_NAME>
2-bromoacetic acid [6-(5,21-dichloro-12,14-dioxo-3,13,23-triazahexacyclo[14.7.0.02,10.04,9.011,15.017,22]tricosa-1,4(9),5,7,10,15,17(22),18,20-nonaen-3-yl)-4,5-dihydroxy-3-methoxy-2-oxanyl]methyl ester

> <PUBCHEM_IUPAC_NAME_MARKUP>
[6-(5,21-dichloro-12,14-dioxo-3,13,23-triazahexacyclo[14.7.0.0<SUP>2,10</SUP>.0<SUP>4,9</SUP>.0<SUP>11,15</SUP>.0<SUP>17,22</SUP>]tricosa-1,4(9),5,7,10,15,17(22),18,20-nonaen-3-yl)-4,5-dihydroxy-3-methoxyoxan-2-yl]methyl 2-bromoacetate

> <PUBCHEM_IUPAC_NAME>
[6-(5,21-dichloro-12,14-dioxo-3,13,23-triazahexacyclo[14.7.0.02,10.04,9.011,15.017,22]tricosa-1,4(9),5,7,10,15,17(22),18,20-nonaen-3-yl)-4,5-dihydroxy-3-methoxyoxan-2-yl]methyl 2-bromoacetate

> <PUBCHEM_IUPAC_SYSTEMATIC_NAME>
[6-[5,21-bis(chloranyl)-12,14-bis(oxidanylidene)-3,13,23-triazahexacyclo[14.7.0.02,10.04,9.011,15.017,22]tricosa-1,4(9),5,7,10,15,17(22),18,20-nonaen-3-yl]-3-methoxy-4,5-bis(oxidanyl)oxan-2-yl]methyl 2-bromanylethanoate

> <PUBCHEM_IUPAC_TRADITIONAL_NAME>
2-bromoacetic acid [6-(5,21-dichloro-12,14-diketo-3,13,23-triazahexacyclo[14.7.0.02,10.04,9.011,15.017,22]tricosa-1,4(9),5,7,10,15,17(22),18,20-nonaen-3-yl)-4,5-dihydroxy-3-methoxy-tetrahydropyran-2-yl]methyl ester

> <PUBCHEM_IUPAC_INCHI>
InChI=1S/C29H22BrCl2N3O8/c1-41-26-14(9-42-15(36)8-30)43-29(25(38)24(26)37)35-22-11(5-3-7-13(22)32)17-19-18(27(39)34-28(19)40)16-10-4-2-6-12(31)20(10)33-21(16)23(17)35/h2-7,14,24-26,29,33,37-38H,8-9H2,1H3,(H,34,39,40)

> <PUBCHEM_IUPAC_INCHIKEY>
HQRSBVWRYYYMCB-UHFFFAOYSA-N

> <PUBCHEM_XLOGP3_AA>
4

> <PUBCHEM_EXACT_MASS>
688.99673

> <PUBCHEM_MOLECULAR_FORMULA>
C29H22BrCl2N3O8

> <PUBCHEM_MOLECULAR_WEIGHT>
691.3

> <PUBCHEM_SMILES>
COC1C(OC(C(C1O)O)N2C3=C(C=CC=C3Cl)C4=C5C(=C6C7=C(C(=CC=C7)Cl)NC6=C42)C(=O)NC5=O)COC(=O)CBr

> <PUBCHEM_OPENEYE_CAN_SMILES>
COC1C(OC(C(C1O)O)N2C3=C(C=CC=C3Cl)C4=C5C(=C6C7=C(C(=CC=C7)Cl)NC6=C42)C(=O)NC5=O)COC(=O)CBr

> <PUBCHEM_OPENEYE_ISO_SMILES>
COC1C(OC(C(C1O)O)N2C3=C(C=CC=C3Cl)C4=C5C(=C6C7=C(C(=CC=C7)Cl)NC6=C42)C(=O)NC5=O)COC(=O)CBr

> <PUBCHEM_CACTVS_TPSA>
152

> <PUBCHEM_MONOISOTOPIC_WEIGHT>
688.99673

> <PUBCHEM_TOTAL_CHARGE>
0

> <PUBCHEM_HEAVY_ATOM_COUNT>
43

> <PUBCHEM_ATOM_DEF_STEREO_COUNT>
0

> <PUBCHEM_ATOM_UDEF_STEREO_COUNT>
5

> <PUBCHEM_BOND_DEF_STEREO_COUNT>
0

> <PUBCHEM_BOND_UDEF_STEREO_COUNT>
0

> <PUBCHEM_ISOTOPIC_ATOM_COUNT>
0

> <PUBCHEM_COMPONENT_COUNT>
1

> <PUBCHEM_CACTVS_TAUTO_COUNT>
-1

> <PUBCHEM_COORDINATE_TYPE>
1
5
255

> <PUBCHEM_BONDANNOTATIONS>
15  12  3
12  20  8
12  22  8
13  23  8
13  31  8
19  28  3
20  21  8
20  23  8
21  24  8
21  26  8
22  24  8
22  30  8
23  25  8
24  32  8
25  27  8
25  29  8
26  27  8
29  31  8
29  37  8
30  35  8
31  39  8
32  36  8
35  36  8
37  40  8
39  41  8
40  41  8
18  5  3
16  6  3
17  7  3

$$$$
