57396882
  -OEChem-03202500402D

 58 63  0     1  0  0  0  0  0999 V2000
    9.8680   -4.3546    0.0000 F   0  0  0  0  0  0  0  0  0  0  0  0
    4.3910   -3.0534    0.0000 O   0  0  0  0  0  0  0  0  0  0  0  0
    5.7021    1.5679    0.0000 N   0  0  3  0  0  0  0  0  0  0  0  0
    4.7511   -1.3592    0.0000 N   0  0  0  0  0  0  0  0  0  0  0  0
    7.2156    3.7380    0.0000 N   0  0  0  0  0  0  0  0  0  0  0  0
    6.7764   -1.8524    0.0000 N   0  0  0  0  0  0  0  0  0  0  0  0
    4.7511    0.2588    0.0000 C   0  0  2  0  0  0  0  0  0  0  0  0
    5.7021    0.5679    0.0000 C   0  0  0  0  0  0  0  0  0  0  0  0
    4.1633    1.0679    0.0000 C   0  0  0  0  0  0  0  0  0  0  0  0
    4.7511    1.8769    0.0000 C   0  0  0  0  0  0  0  0  0  0  0  0
    5.3388   -0.5502    0.0000 C   0  0  0  0  0  0  0  0  0  0  0  0
    3.8000   -0.0502    0.0000 C   0  0  0  0  0  0  0  0  0  0  0  0
    6.5111    2.1556    0.0000 C   0  0  3  0  0  0  0  0  0  0  0  0
    3.8000   -1.0502    0.0000 C   0  0  0  0  0  0  0  0  0  0  0  0
    7.4247    1.7489    0.0000 C   0  0  0  0  0  0  0  0  0  0  0  0
    6.4066    3.1502    0.0000 C   0  0  0  0  0  0  0  0  0  0  0  0
    2.9061    0.4845    0.0000 C   0  0  0  0  0  0  0  0  0  0  0  0
    8.2337    2.3367    0.0000 C   0  0  0  0  0  0  0  0  0  0  0  0
    8.1292    3.3312    0.0000 C   0  0  0  0  0  0  0  0  0  0  0  0
    2.9061   -1.5848    0.0000 C   0  0  0  0  0  0  0  0  0  0  0  0
    5.0601   -2.3102    0.0000 C   0  0  0  0  0  0  0  0  0  0  0  0
    2.0000   -0.0294    0.0000 C   0  0  0  0  0  0  0  0  0  0  0  0
    2.0000   -1.0710    0.0000 C   0  0  0  0  0  0  0  0  0  0  0  0
    6.0382   -2.5182    0.0000 C   0  0  0  0  0  0  0  0  0  0  0  0
    6.4418   -3.4266    0.0000 C   0  0  0  0  0  0  0  0  0  0  0  0
    7.6386   -2.3472    0.0000 C   0  0  0  0  0  0  0  0  0  0  0  0
    7.4307   -3.3253    0.0000 C   0  0  0  0  0  0  0  0  0  0  0  0
    8.5896   -2.0381    0.0000 C   0  0  0  0  0  0  0  0  0  0  0  0
    8.1738   -3.9944    0.0000 C   0  0  0  0  0  0  0  0  0  0  0  0
    9.1249   -3.6854    0.0000 C   0  0  0  0  0  0  0  0  0  0  0  0
    9.3328   -2.7073    0.0000 C   0  0  0  0  0  0  0  0  0  0  0  0
    5.8310   -0.0386    0.0000 H   0  0  0  0  0  0  0  0  0  0  0  0
    6.3187    0.6327    0.0000 H   0  0  0  0  0  0  0  0  0  0  0  0
    3.7025    1.4827    0.0000 H   0  0  0  0  0  0  0  0  0  0  0  0
    3.7025    0.6530    0.0000 H   0  0  0  0  0  0  0  0  0  0  0  0
    5.0032    2.4433    0.0000 H   0  0  0  0  0  0  0  0  0  0  0  0
    4.2141    2.1869    0.0000 H   0  0  0  0  0  0  0  0  0  0  0  0
    5.7996   -0.9650    0.0000 H   0  0  0  0  0  0  0  0  0  0  0  0
    5.7996   -0.1353    0.0000 H   0  0  0  0  0  0  0  0  0  0  0  0
    5.9447    2.4078    0.0000 H   0  0  0  0  0  0  0  0  0  0  0  0
    7.0780    1.2349    0.0000 H   0  0  0  0  0  0  0  0  0  0  0  0
    7.8707    1.3182    0.0000 H   0  0  0  0  0  0  0  0  0  0  0  0
    6.1348    3.7074    0.0000 H   0  0  0  0  0  0  0  0  0  0  0  0
    5.8106    2.9793    0.0000 H   0  0  0  0  0  0  0  0  0  0  0  0
    8.5055    1.7794    0.0000 H   0  0  0  0  0  0  0  0  0  0  0  0
    8.8297    2.5076    0.0000 H   0  0  0  0  0  0  0  0  0  0  0  0
    2.9132    1.1044    0.0000 H   0  0  0  0  0  0  0  0  0  0  0  0
    8.7477    3.2880    0.0000 H   0  0  0  0  0  0  0  0  0  0  0  0
    8.2792    3.9328    0.0000 H   0  0  0  0  0  0  0  0  0  0  0  0
    7.1508    4.3546    0.0000 H   0  0  0  0  0  0  0  0  0  0  0  0
    2.9132   -2.2048    0.0000 H   0  0  0  0  0  0  0  0  0  0  0  0
    1.4643    0.2827    0.0000 H   0  0  0  0  0  0  0  0  0  0  0  0
    1.4643   -1.3831    0.0000 H   0  0  0  0  0  0  0  0  0  0  0  0
    6.7105   -1.2359    0.0000 H   0  0  0  0  0  0  0  0  0  0  0  0
    6.1308   -3.9630    0.0000 H   0  0  0  0  0  0  0  0  0  0  0  0
    8.7186   -1.4317    0.0000 H   0  0  0  0  0  0  0  0  0  0  0  0
    8.0449   -4.6009    0.0000 H   0  0  0  0  0  0  0  0  0  0  0  0
    9.9224   -2.5157    0.0000 H   0  0  0  0  0  0  0  0  0  0  0  0
  1 30  1  0  0  0  0
  2 21  2  0  0  0  0
  3  8  1  0  0  0  0
  3 10  1  0  0  0  0
  3 13  1  0  0  0  0
  4 11  1  0  0  0  0
  4 14  1  0  0  0  0
  4 21  1  0  0  0  0
  5 16  1  0  0  0  0
  5 19  1  0  0  0  0
  5 50  1  0  0  0  0
  6 24  1  0  0  0  0
  6 26  1  0  0  0  0
  6 54  1  0  0  0  0
  7  8  1  0  0  0  0
  7  9  1  1  0  0  0
  7 11  1  0  0  0  0
  7 12  1  0  0  0  0
  8 32  1  0  0  0  0
  8 33  1  0  0  0  0
  9 10  1  0  0  0  0
  9 34  1  0  0  0  0
  9 35  1  0  0  0  0
 10 36  1  0  0  0  0
 10 37  1  0  0  0  0
 11 38  1  0  0  0  0
 11 39  1  0  0  0  0
 12 14  1  0  0  0  0
 12 17  2  0  0  0  0
 13 15  1  0  0  0  0
 13 16  1  0  0  0  0
 13 40  1  0  0  0  0
 14 20  2  0  0  0  0
 15 18  1  0  0  0  0
 15 41  1  0  0  0  0
 15 42  1  0  0  0  0
 16 43  1  0  0  0  0
 16 44  1  0  0  0  0
 17 22  1  0  0  0  0
 17 47  1  0  0  0  0
 18 19  1  0  0  0  0
 18 45  1  0  0  0  0
 18 46  1  0  0  0  0
 19 48  1  0  0  0  0
 19 49  1  0  0  0  0
 20 23  1  0  0  0  0
 20 51  1  0  0  0  0
 21 24  1  0  0  0  0
 22 23  2  0  0  0  0
 22 52  1  0  0  0  0
 23 53  1  0  0  0  0
 24 25  2  0  0  0  0
 25 27  1  0  0  0  0
 25 55  1  0  0  0  0
 26 27  2  0  0  0  0
 26 28  1  0  0  0  0
 27 29  1  0  0  0  0
 28 31  2  0  0  0  0
 28 56  1  0  0  0  0
 29 30  2  0  0  0  0
 29 57  1  0  0  0  0
 30 31  1  0  0  0  0
 31 58  1  0  0  0  0
M  END
> <PUBCHEM_COMPOUND_CID>
57396882

> <PUBCHEM_COMPOUND_CANONICALIZED>
1

> <PUBCHEM_CACTVS_COMPLEXITY>
690

> <PUBCHEM_CACTVS_HBOND_ACCEPTOR>
4

> <PUBCHEM_CACTVS_HBOND_DONOR>
2

> <PUBCHEM_CACTVS_ROTATABLE_BOND>
2

> <PUBCHEM_CACTVS_SUBSKEYS>
AAADceB7oQAAAAAAAAAAAAAAAAAAAWLFgAA8YIAAAAAAAFgB9AAAHwAQAAAADijBngwwwPPJkACoAyVyVACCgCAnAiAImaG4ZNgIYPLA1bGUIQhglgDIyYcYicCfgAAAAAACAAAAAAAAAAQAAAAAAAAAAA==

> <PUBCHEM_IUPAC_OPENEYE_NAME>
(5-fluoro-1H-indol-2-yl)-[(3R)-1'-(3-piperidyl)spiro[indoline-3,3'-pyrrolidine]-1-yl]methanone

> <PUBCHEM_IUPAC_CAS_NAME>
(5-fluoro-1H-indol-2-yl)-[(3R)-1'-(3-piperidinyl)-1-spiro[2H-indole-3,3'-pyrrolidine]yl]methanone

> <PUBCHEM_IUPAC_NAME_MARKUP>
(5-fluoro-1<I>H</I>-indol-2-yl)-[(3<I>R</I>)-1&apos;-piperidin-3-ylspiro[2<I>H</I>-indole-3,3&apos;-pyrrolidine]-1-yl]methanone

> <PUBCHEM_IUPAC_NAME>
(5-fluoro-1H-indol-2-yl)-[(3R)-1'-piperidin-3-ylspiro[2H-indole-3,3'-pyrrolidine]-1-yl]methanone

> <PUBCHEM_IUPAC_SYSTEMATIC_NAME>
(5-fluoranyl-1H-indol-2-yl)-[(3R)-1'-piperidin-3-ylspiro[2H-indole-3,3'-pyrrolidine]-1-yl]methanone

> <PUBCHEM_IUPAC_TRADITIONAL_NAME>
(5-fluoro-1H-indol-2-yl)-[(3R)-1'-(3-piperidyl)spiro[indoline-3,3'-pyrrolidine]-1-yl]methanone

> <PUBCHEM_IUPAC_INCHI>
InChI=1S/C25H27FN4O/c26-18-7-8-21-17(12-18)13-22(28-21)24(31)30-16-25(20-5-1-2-6-23(20)30)9-11-29(15-25)19-4-3-10-27-14-19/h1-2,5-8,12-13,19,27-28H,3-4,9-11,14-16H2/t19?,25-/m1/s1

> <PUBCHEM_IUPAC_INCHIKEY>
ABNVVKAVWJYHCL-OPEAARRCSA-N

> <PUBCHEM_XLOGP3_AA>
3.6

> <PUBCHEM_EXACT_MASS>
418.21688966

> <PUBCHEM_MOLECULAR_FORMULA>
C25H27FN4O

> <PUBCHEM_MOLECULAR_WEIGHT>
418.5

> <PUBCHEM_SMILES>
C1CC(CNC1)N2CC[C@@]3(C2)CN(C4=CC=CC=C34)C(=O)C5=CC6=C(N5)C=CC(=C6)F

> <PUBCHEM_OPENEYE_CAN_SMILES>
C1CC(CNC1)N2CCC3(C2)CN(C4=CC=CC=C34)C(=O)C5=CC6=C(N5)C=CC(=C6)F

> <PUBCHEM_OPENEYE_ISO_SMILES>
C1CC(CNC1)N2CC[C@@]3(C2)CN(C4=CC=CC=C34)C(=O)C5=CC6=C(N5)C=CC(=C6)F

> <PUBCHEM_CACTVS_TPSA>
51.4

> <PUBCHEM_MONOISOTOPIC_WEIGHT>
418.21688966

> <PUBCHEM_TOTAL_CHARGE>
0

> <PUBCHEM_HEAVY_ATOM_COUNT>
31

> <PUBCHEM_ATOM_DEF_STEREO_COUNT>
1

> <PUBCHEM_ATOM_UDEF_STEREO_COUNT>
1

> <PUBCHEM_BOND_DEF_STEREO_COUNT>
0

> <PUBCHEM_BOND_UDEF_STEREO_COUNT>
0

> <PUBCHEM_ISOTOPIC_ATOM_COUNT>
0

> <PUBCHEM_COMPONENT_COUNT>
1

> <PUBCHEM_CACTVS_TAUTO_COUNT>
-1

> <PUBCHEM_COORDINATE_TYPE>
1
5
255

> <PUBCHEM_BONDANNOTATIONS>
12  14  8
12  17  8
14  20  8
17  22  8
20  23  8
22  23  8
24  25  8
25  27  8
26  27  8
26  28  8
27  29  8
28  31  8
29  30  8
13  3  3
30  31  8
6  24  8
6  26  8
7  9  5

$$$$
