18451223
  -OEChem-03202501362D

 62 66  0     0  0  0  0  0  0999 V2000
    6.2610   -1.5168    0.0000 S   0  0  0  0  0  0  0  0  0  0  0  0
    9.1500    3.3567    0.0000 O   0  0  0  0  0  0  0  0  0  0  0  0
    3.5827   -5.2120    0.0000 N   0  0  0  0  0  0  0  0  0  0  0  0
    3.5827   -0.2120    0.0000 N   0  0  0  0  0  0  0  0  0  0  0  0
    4.4487    1.2880    0.0000 N   0  0  0  0  0  0  0  0  0  0  0  0
    7.5036    3.8948    0.0000 N   0  0  0  0  0  0  0  0  0  0  0  0
    8.7928    5.0515    0.0000 N   0  0  0  0  0  0  0  0  0  0  0  0
    2.0000   -5.5484    0.0000 C   0  0  0  0  0  0  0  0  0  0  0  0
    2.5000   -6.4145    0.0000 C   0  0  0  0  0  0  0  0  0  0  0  0
    2.6691   -4.8053    0.0000 C   0  0  0  0  0  0  0  0  0  0  0  0
    3.4782   -6.2066    0.0000 C   0  0  0  0  0  0  0  0  0  0  0  0
    4.4487   -4.7120    0.0000 C   0  0  0  0  0  0  0  0  0  0  0  0
    4.4487   -3.7120    0.0000 C   0  0  0  0  0  0  0  0  0  0  0  0
    5.3147   -0.2120    0.0000 C   0  0  0  0  0  0  0  0  0  0  0  0
    5.3147   -1.2120    0.0000 C   0  0  0  0  0  0  0  0  0  0  0  0
    4.4487   -1.7120    0.0000 C   0  0  0  0  0  0  0  0  0  0  0  0
    6.2610    0.0927    0.0000 C   0  0  0  0  0  0  0  0  0  0  0  0
    4.4487   -2.7120    0.0000 C   0  0  0  0  0  0  0  0  0  0  0  0
    6.5716    1.0432    0.0000 C   0  0  0  0  0  0  0  0  0  0  0  0
    4.4487    0.2880    0.0000 C   0  0  0  0  0  0  0  0  0  0  0  0
    6.8446   -0.7120    0.0000 C   0  0  0  0  0  0  0  0  0  0  0  0
    3.5827   -1.2120    0.0000 C   0  0  0  0  0  0  0  0  0  0  0  0
    5.9038    1.7875    0.0000 C   0  0  0  0  0  0  0  0  0  0  0  0
    7.5501    1.2494    0.0000 C   0  0  0  0  0  0  0  0  0  0  0  0
    7.1929    2.9442    0.0000 C   0  0  0  0  0  0  0  0  0  0  0  0
    6.2144    2.7380    0.0000 C   0  0  0  0  0  0  0  0  0  0  0  0
    7.8608    2.2000    0.0000 C   0  0  0  0  0  0  0  0  0  0  0  0
    8.4821    4.1010    0.0000 C   0  0  0  0  0  0  0  0  0  0  0  0
    9.7713    5.2577    0.0000 C   0  0  0  0  0  0  0  0  0  0  0  0
   11.4176    4.7196    0.0000 C   0  0  0  0  0  0  0  0  0  0  0  0
   10.4391    4.5134    0.0000 C   0  0  0  0  0  0  0  0  0  0  0  0
   10.0819    6.2082    0.0000 C   0  0  0  0  0  0  0  0  0  0  0  0
   11.7283    5.6702    0.0000 C   0  0  0  0  0  0  0  0  0  0  0  0
   11.0604    6.4145    0.0000 C   0  0  0  0  0  0  0  0  0  0  0  0
   12.0855    3.9754    0.0000 C   0  0  0  0  0  0  0  0  0  0  0  0
    1.5851   -5.0877    0.0000 H   0  0  0  0  0  0  0  0  0  0  0  0
    1.4984   -5.9129    0.0000 H   0  0  0  0  0  0  0  0  0  0  0  0
    1.9336   -6.6666    0.0000 H   0  0  0  0  0  0  0  0  0  0  0  0
    2.6916   -7.0041    0.0000 H   0  0  0  0  0  0  0  0  0  0  0  0
    2.9791   -4.2684    0.0000 H   0  0  0  0  0  0  0  0  0  0  0  0
    2.1675   -4.4409    0.0000 H   0  0  0  0  0  0  0  0  0  0  0  0
    3.5430   -6.8232    0.0000 H   0  0  0  0  0  0  0  0  0  0  0  0
    4.0982   -6.2066    0.0000 H   0  0  0  0  0  0  0  0  0  0  0  0
    4.6608   -5.2946    0.0000 H   0  0  0  0  0  0  0  0  0  0  0  0
    5.0593   -4.6044    0.0000 H   0  0  0  0  0  0  0  0  0  0  0  0
    7.4646   -0.7120    0.0000 H   0  0  0  0  0  0  0  0  0  0  0  0
    3.0457   -1.5220    0.0000 H   0  0  0  0  0  0  0  0  0  0  0  0
    5.2971    1.6597    0.0000 H   0  0  0  0  0  0  0  0  0  0  0  0
    7.9642    0.7880    0.0000 H   0  0  0  0  0  0  0  0  0  0  0  0
    5.8004    3.1995    0.0000 H   0  0  0  0  0  0  0  0  0  0  0  0
    8.4674    2.3278    0.0000 H   0  0  0  0  0  0  0  0  0  0  0  0
    3.9118    1.5980    0.0000 H   0  0  0  0  0  0  0  0  0  0  0  0
    4.9856    1.5980    0.0000 H   0  0  0  0  0  0  0  0  0  0  0  0
    7.0895    4.3562    0.0000 H   0  0  0  0  0  0  0  0  0  0  0  0
    8.3787    5.5130    0.0000 H   0  0  0  0  0  0  0  0  0  0  0  0
   10.2465    3.9241    0.0000 H   0  0  0  0  0  0  0  0  0  0  0  0
    9.6679    6.6697    0.0000 H   0  0  0  0  0  0  0  0  0  0  0  0
   12.3350    5.7980    0.0000 H   0  0  0  0  0  0  0  0  0  0  0  0
   11.2530    7.0038    0.0000 H   0  0  0  0  0  0  0  0  0  0  0  0
   11.6240    3.5613    0.0000 H   0  0  0  0  0  0  0  0  0  0  0  0
   12.4995    3.5139    0.0000 H   0  0  0  0  0  0  0  0  0  0  0  0
   12.5469    4.3894    0.0000 H   0  0  0  0  0  0  0  0  0  0  0  0
  1 15  1  0  0  0  0
  1 21  1  0  0  0  0
  2 28  2  0  0  0  0
  3 10  1  0  0  0  0
  3 11  1  0  0  0  0
  3 12  1  0  0  0  0
  4 20  2  0  0  0  0
  4 22  1  0  0  0  0
  5 20  1  0  0  0  0
  5 52  1  0  0  0  0
  5 53  1  0  0  0  0
  6 25  1  0  0  0  0
  6 28  1  0  0  0  0
  6 54  1  0  0  0  0
  7 28  1  0  0  0  0
  7 29  1  0  0  0  0
  7 55  1  0  0  0  0
  8  9  1  0  0  0  0
  8 10  1  0  0  0  0
  8 36  1  0  0  0  0
  8 37  1  0  0  0  0
  9 11  1  0  0  0  0
  9 38  1  0  0  0  0
  9 39  1  0  0  0  0
 10 40  1  0  0  0  0
 10 41  1  0  0  0  0
 11 42  1  0  0  0  0
 11 43  1  0  0  0  0
 12 13  1  0  0  0  0
 12 44  1  0  0  0  0
 12 45  1  0  0  0  0
 13 18  3  0  0  0  0
 14 15  2  0  0  0  0
 14 17  1  0  0  0  0
 14 20  1  0  0  0  0
 15 16  1  0  0  0  0
 16 18  1  0  0  0  0
 16 22  2  0  0  0  0
 17 19  1  0  0  0  0
 17 21  2  0  0  0  0
 19 23  2  0  0  0  0
 19 24  1  0  0  0  0
 21 46  1  0  0  0  0
 22 47  1  0  0  0  0
 23 26  1  0  0  0  0
 23 48  1  0  0  0  0
 24 27  2  0  0  0  0
 24 49  1  0  0  0  0
 25 26  2  0  0  0  0
 25 27  1  0  0  0  0
 26 50  1  0  0  0  0
 27 51  1  0  0  0  0
 29 31  1  0  0  0  0
 29 32  2  0  0  0  0
 30 31  2  0  0  0  0
 30 33  1  0  0  0  0
 30 35  1  0  0  0  0
 31 56  1  0  0  0  0
 32 34  1  0  0  0  0
 32 57  1  0  0  0  0
 33 34  2  0  0  0  0
 33 58  1  0  0  0  0
 34 59  1  0  0  0  0
 35 60  1  0  0  0  0
 35 61  1  0  0  0  0
 35 62  1  0  0  0  0
M  END
> <PUBCHEM_COMPOUND_CID>
18451223

> <PUBCHEM_COMPOUND_CANONICALIZED>
1

> <PUBCHEM_CACTVS_COMPLEXITY>
781

> <PUBCHEM_CACTVS_HBOND_ACCEPTOR>
5

> <PUBCHEM_CACTVS_HBOND_DONOR>
3

> <PUBCHEM_CACTVS_ROTATABLE_BOND>
5

> <PUBCHEM_CACTVS_SUBSKEYS>
AAADceB7oABAAAAAAAAAAAAAAAAAAWJAAAA8YIAAAAAAAFgB/AAAHgQQAAAADAjFWgS/8dPIEAjsEjZndAiDgKkxCjAI2DAoZJiIIGLgkZGEIAxolALoyCcQgMAOiAAAQAAAAAAQAACAAAAAAAAAAAAAAA==

> <PUBCHEM_IUPAC_OPENEYE_NAME>
1-[4-[4-amino-7-(3-pyrrolidin-1-ylprop-1-ynyl)thieno[3,2-c]pyridin-3-yl]phenyl]-3-(m-tolyl)urea

> <PUBCHEM_IUPAC_CAS_NAME>
1-[4-[4-amino-7-[3-(1-pyrrolidinyl)prop-1-ynyl]-3-thieno[3,2-c]pyridinyl]phenyl]-3-(3-methylphenyl)urea

> <PUBCHEM_IUPAC_NAME_MARKUP>
1-[4-[4-amino-7-(3-pyrrolidin-1-ylprop-1-ynyl)thieno[3,2-c]pyridin-3-yl]phenyl]-3-(3-methylphenyl)urea

> <PUBCHEM_IUPAC_NAME>
1-[4-[4-amino-7-(3-pyrrolidin-1-ylprop-1-ynyl)thieno[3,2-c]pyridin-3-yl]phenyl]-3-(3-methylphenyl)urea

> <PUBCHEM_IUPAC_SYSTEMATIC_NAME>
1-[4-[4-azanyl-7-(3-pyrrolidin-1-ylprop-1-ynyl)thieno[3,2-c]pyridin-3-yl]phenyl]-3-(3-methylphenyl)urea

> <PUBCHEM_IUPAC_TRADITIONAL_NAME>
1-[4-[4-amino-7-(3-pyrrolidinoprop-1-ynyl)thieno[3,2-c]pyridin-3-yl]phenyl]-3-(m-tolyl)urea

> <PUBCHEM_IUPAC_INCHI>
InChI=1S/C28H27N5OS/c1-19-6-4-8-23(16-19)32-28(34)31-22-11-9-20(10-12-22)24-18-35-26-21(17-30-27(29)25(24)26)7-5-15-33-13-2-3-14-33/h4,6,8-12,16-18H,2-3,13-15H2,1H3,(H2,29,30)(H2,31,32,34)

> <PUBCHEM_IUPAC_INCHIKEY>
LGHBDVLAHHANMX-UHFFFAOYSA-N

> <PUBCHEM_XLOGP3_AA>
4.8

> <PUBCHEM_EXACT_MASS>
481.19363168

> <PUBCHEM_MOLECULAR_FORMULA>
C28H27N5OS

> <PUBCHEM_MOLECULAR_WEIGHT>
481.6

> <PUBCHEM_SMILES>
CC1=CC(=CC=C1)NC(=O)NC2=CC=C(C=C2)C3=CSC4=C3C(=NC=C4C#CCN5CCCC5)N

> <PUBCHEM_OPENEYE_CAN_SMILES>
CC1=CC(=CC=C1)NC(=O)NC2=CC=C(C=C2)C3=CSC4=C3C(=NC=C4C#CCN5CCCC5)N

> <PUBCHEM_OPENEYE_ISO_SMILES>
CC1=CC(=CC=C1)NC(=O)NC2=CC=C(C=C2)C3=CSC4=C3C(=NC=C4C#CCN5CCCC5)N

> <PUBCHEM_CACTVS_TPSA>
112

> <PUBCHEM_MONOISOTOPIC_WEIGHT>
481.19363168

> <PUBCHEM_TOTAL_CHARGE>
0

> <PUBCHEM_HEAVY_ATOM_COUNT>
35

> <PUBCHEM_ATOM_DEF_STEREO_COUNT>
0

> <PUBCHEM_ATOM_UDEF_STEREO_COUNT>
0

> <PUBCHEM_BOND_DEF_STEREO_COUNT>
0

> <PUBCHEM_BOND_UDEF_STEREO_COUNT>
0

> <PUBCHEM_ISOTOPIC_ATOM_COUNT>
0

> <PUBCHEM_COMPONENT_COUNT>
1

> <PUBCHEM_CACTVS_TAUTO_COUNT>
-1

> <PUBCHEM_COORDINATE_TYPE>
1
5
255

> <PUBCHEM_BONDANNOTATIONS>
1  15  8
1  21  8
14  15  8
14  17  8
14  20  8
15  16  8
16  22  8
17  21  8
19  23  8
19  24  8
23  26  8
24  27  8
25  26  8
25  27  8
29  31  8
29  32  8
30  31  8
30  33  8
32  34  8
33  34  8
4  20  8
4  22  8

$$$$
