5216867
  -OEChem-03202503122D

 42 45  0     0  0  0  0  0  0999 V2000
    6.2619    4.1892    0.0000 S   0  0  0  0  0  0  0  0  0  0  0  0
    6.3551    2.4096    0.0000 O   0  0  0  0  0  0  0  0  0  0  0  0
    9.4208   -1.0174    0.0000 O   0  0  0  0  0  0  0  0  0  0  0  0
    9.8117   -5.5832    0.0000 O   0  5  0  0  0  0  0  0  0  0  0  0
   10.8298   -4.1820    0.0000 O   0  0  0  0  0  0  0  0  0  0  0  0
    4.6783    4.9939    0.0000 N   0  0  0  0  0  0  0  0  0  0  0  0
    4.6783    3.3845    0.0000 N   0  0  0  0  0  0  0  0  0  0  0  0
    7.6982   -0.8363    0.0000 N   0  0  0  0  0  0  0  0  0  0  0  0
    7.8028    0.1582    0.0000 N   0  0  0  0  0  0  0  0  0  0  0  0
    9.9162   -4.5887    0.0000 N   0  3  0  0  0  0  0  0  0  0  0  0
    3.7320    4.6892    0.0000 C   0  0  0  0  0  0  0  0  0  0  0  0
    3.7320    3.6892    0.0000 C   0  0  0  0  0  0  0  0  0  0  0  0
    5.2619    4.1892    0.0000 C   0  0  0  0  0  0  0  0  0  0  0  0
    2.8660    5.1892    0.0000 C   0  0  0  0  0  0  0  0  0  0  0  0
    2.8660    3.1892    0.0000 C   0  0  0  0  0  0  0  0  0  0  0  0
    2.0000    4.6892    0.0000 C   0  0  0  0  0  0  0  0  0  0  0  0
    2.0000    3.6892    0.0000 C   0  0  0  0  0  0  0  0  0  0  0  0
    6.7619    3.3232    0.0000 C   0  0  0  0  0  0  0  0  0  0  0  0
    8.4027   -2.4186    0.0000 C   0  0  0  0  0  0  0  0  0  0  0  0
    7.0983    1.7405    0.0000 C   0  0  0  0  0  0  0  0  0  0  0  0
    7.7564    3.2186    0.0000 C   0  0  0  0  0  0  0  0  0  0  0  0
    9.2118   -3.0064    0.0000 C   0  0  0  0  0  0  0  0  0  0  0  0
    7.9643    2.2405    0.0000 C   0  0  0  0  0  0  0  0  0  0  0  0
    9.1072   -4.0009    0.0000 C   0  0  0  0  0  0  0  0  0  0  0  0
    7.4892   -2.8254    0.0000 C   0  0  0  0  0  0  0  0  0  0  0  0
    8.1937   -4.4077    0.0000 C   0  0  0  0  0  0  0  0  0  0  0  0
    7.3847   -3.8199    0.0000 C   0  0  0  0  0  0  0  0  0  0  0  0
    8.5073   -1.4241    0.0000 C   0  0  0  0  0  0  0  0  0  0  0  0
    6.9938    0.7460    0.0000 C   0  0  0  0  0  0  0  0  0  0  0  0
    4.8709    5.5832    0.0000 H   0  0  0  0  0  0  0  0  0  0  0  0
    2.8660    5.8092    0.0000 H   0  0  0  0  0  0  0  0  0  0  0  0
    2.8660    2.5692    0.0000 H   0  0  0  0  0  0  0  0  0  0  0  0
    1.4631    4.9992    0.0000 H   0  0  0  0  0  0  0  0  0  0  0  0
    1.4631    3.3792    0.0000 H   0  0  0  0  0  0  0  0  0  0  0  0
    8.1713    3.6794    0.0000 H   0  0  0  0  0  0  0  0  0  0  0  0
    9.7782   -2.7542    0.0000 H   0  0  0  0  0  0  0  0  0  0  0  0
    8.5307    1.9883    0.0000 H   0  0  0  0  0  0  0  0  0  0  0  0
    6.9876   -2.4610    0.0000 H   0  0  0  0  0  0  0  0  0  0  0  0
    8.1289   -5.0243    0.0000 H   0  0  0  0  0  0  0  0  0  0  0  0
    6.8183   -4.0721    0.0000 H   0  0  0  0  0  0  0  0  0  0  0  0
    6.4274    0.4938    0.0000 H   0  0  0  0  0  0  0  0  0  0  0  0
    7.1318   -1.0885    0.0000 H   0  0  0  0  0  0  0  0  0  0  0  0
  1 13  1  0  0  0  0
  1 18  1  0  0  0  0
  2 18  1  0  0  0  0
  2 20  1  0  0  0  0
  3 28  2  0  0  0  0
  4 10  1  0  0  0  0
  5 10  2  0  0  0  0
  6 11  1  0  0  0  0
  6 13  1  0  0  0  0
  6 30  1  0  0  0  0
  7 12  1  0  0  0  0
  7 13  2  0  0  0  0
  8  9  1  0  0  0  0
  8 28  1  0  0  0  0
  8 42  1  0  0  0  0
  9 29  2  3  0  0  0
 10 24  1  0  0  0  0
 11 12  1  0  0  0  0
 11 14  2  0  0  0  0
 12 15  2  0  0  0  0
 14 16  1  0  0  0  0
 14 31  1  0  0  0  0
 15 17  1  0  0  0  0
 15 32  1  0  0  0  0
 16 17  2  0  0  0  0
 16 33  1  0  0  0  0
 17 34  1  0  0  0  0
 18 21  2  0  0  0  0
 19 22  2  0  0  0  0
 19 25  1  0  0  0  0
 19 28  1  0  0  0  0
 20 23  2  0  0  0  0
 20 29  1  0  0  0  0
 21 23  1  0  0  0  0
 21 35  1  0  0  0  0
 22 24  1  0  0  0  0
 22 36  1  0  0  0  0
 23 37  1  0  0  0  0
 24 26  2  0  0  0  0
 25 27  2  0  0  0  0
 25 38  1  0  0  0  0
 26 27  1  0  0  0  0
 26 39  1  0  0  0  0
 27 40  1  0  0  0  0
 29 41  1  0  0  0  0
M  CHG  2   4  -1  10   1
M  END
> <PUBCHEM_COMPOUND_CID>
5216867

> <PUBCHEM_COMPOUND_CANONICALIZED>
1

> <PUBCHEM_CACTVS_COMPLEXITY>
630

> <PUBCHEM_CACTVS_HBOND_ACCEPTOR>
7

> <PUBCHEM_CACTVS_HBOND_DONOR>
2

> <PUBCHEM_CACTVS_ROTATABLE_BOND>
5

> <PUBCHEM_CACTVS_SUBSKEYS>
AAADccB7uABAAAAAAAAAAAAAAAAAAWJAAAAwYAAAAAAAAFgB/AAAHgQcAAAADAzB3gQx1bb71EipA7VzdwSS2i3lOrA7mTk2fNqMbrLkvZuWOSjs2BNI6aeciACOAAAAQAAAACAAAACAAAAAQAAAAAAAAA==

> <PUBCHEM_IUPAC_OPENEYE_NAME>
N-[[5-(1H-benzimidazol-2-ylsulfanyl)-2-furyl]methyleneamino]-3-nitro-benzamide

> <PUBCHEM_IUPAC_CAS_NAME>
N-[[5-(1H-benzimidazol-2-ylthio)-2-furanyl]methylideneamino]-3-nitrobenzamide

> <PUBCHEM_IUPAC_NAME_MARKUP>
<I>N</I>-[[5-(1<I>H</I>-benzimidazol-2-ylsulfanyl)furan-2-yl]methylideneamino]-3-nitrobenzamide

> <PUBCHEM_IUPAC_NAME>
N-[[5-(1H-benzimidazol-2-ylsulfanyl)furan-2-yl]methylideneamino]-3-nitrobenzamide

> <PUBCHEM_IUPAC_SYSTEMATIC_NAME>
N-[[5-(1H-benzimidazol-2-ylsulfanyl)furan-2-yl]methylideneamino]-3-nitro-benzamide

> <PUBCHEM_IUPAC_TRADITIONAL_NAME>
N-[[5-(1H-benzimidazol-2-ylthio)-2-furyl]methyleneamino]-3-nitro-benzamide

> <PUBCHEM_IUPAC_INCHI>
InChI=1S/C19H13N5O4S/c25-18(12-4-3-5-13(10-12)24(26)27)23-20-11-14-8-9-17(28-14)29-19-21-15-6-1-2-7-16(15)22-19/h1-11H,(H,21,22)(H,23,25)

> <PUBCHEM_IUPAC_INCHIKEY>
PQRCICYGWACMGJ-UHFFFAOYSA-N

> <PUBCHEM_XLOGP3_AA>
4.4

> <PUBCHEM_EXACT_MASS>
407.06882509

> <PUBCHEM_MOLECULAR_FORMULA>
C19H13N5O4S

> <PUBCHEM_MOLECULAR_WEIGHT>
407.4

> <PUBCHEM_SMILES>
C1=CC=C2C(=C1)NC(=N2)SC3=CC=C(O3)C=NNC(=O)C4=CC(=CC=C4)[N+](=O)[O-]

> <PUBCHEM_OPENEYE_CAN_SMILES>
C1=CC=C2C(=C1)NC(=N2)SC3=CC=C(O3)C=NNC(=O)C4=CC(=CC=C4)[N+](=O)[O-]

> <PUBCHEM_OPENEYE_ISO_SMILES>
C1=CC=C2C(=C1)NC(=N2)SC3=CC=C(O3)C=NNC(=O)C4=CC(=CC=C4)[N+](=O)[O-]

> <PUBCHEM_CACTVS_TPSA>
154

> <PUBCHEM_MONOISOTOPIC_WEIGHT>
407.06882509

> <PUBCHEM_TOTAL_CHARGE>
0

> <PUBCHEM_HEAVY_ATOM_COUNT>
29

> <PUBCHEM_ATOM_DEF_STEREO_COUNT>
0

> <PUBCHEM_ATOM_UDEF_STEREO_COUNT>
0

> <PUBCHEM_BOND_DEF_STEREO_COUNT>
0

> <PUBCHEM_BOND_UDEF_STEREO_COUNT>
1

> <PUBCHEM_ISOTOPIC_ATOM_COUNT>
0

> <PUBCHEM_COMPONENT_COUNT>
1

> <PUBCHEM_CACTVS_TAUTO_COUNT>
-1

> <PUBCHEM_COORDINATE_TYPE>
1
5
255

> <PUBCHEM_BONDANNOTATIONS>
11  12  8
11  14  8
12  15  8
14  16  8
15  17  8
16  17  8
18  21  8
19  22  8
19  25  8
2  18  8
2  20  8
20  23  8
21  23  8
22  24  8
24  26  8
25  27  8
26  27  8
6  11  8
6  13  8
7  12  8
7  13  8
9  29  1

$$$$
