135524168
  -OEChem-03202506292D

 54 58  0     0  0  0  0  0  0999 V2000
   14.7988   -3.1651    0.0000 O   0  0  0  0  0  0  0  0  0  0  0  0
    3.4030    4.0311    0.0000 O   0  0  0  0  0  0  0  0  0  0  0  0
   12.7988   -3.1651    0.0000 N   0  0  0  0  0  0  0  0  0  0  0  0
    5.2152    1.2264    0.0000 N   0  0  0  0  0  0  0  0  0  0  0  0
    3.4030    1.0311    0.0000 N   0  0  0  0  0  0  0  0  0  0  0  0
    2.5369    2.5311    0.0000 N   0  0  0  0  0  0  0  0  0  0  0  0
    8.7988    2.0311    0.0000 N   0  0  0  0  0  0  0  0  0  0  0  0
   13.2988   -4.0311    0.0000 C   0  0  0  0  0  0  0  0  0  0  0  0
   13.2988   -2.2990    0.0000 C   0  0  0  0  0  0  0  0  0  0  0  0
   11.7988   -3.1651    0.0000 C   0  0  0  0  0  0  0  0  0  0  0  0
   14.2988   -4.0311    0.0000 C   0  0  0  0  0  0  0  0  0  0  0  0
   14.2988   -2.2990    0.0000 C   0  0  0  0  0  0  0  0  0  0  0  0
   11.2988   -2.2990    0.0000 C   0  0  0  0  0  0  0  0  0  0  0  0
   10.2988   -2.2990    0.0000 C   0  0  0  0  0  0  0  0  0  0  0  0
   11.7988   -1.4330    0.0000 C   0  0  0  0  0  0  0  0  0  0  0  0
   10.2988   -0.5670    0.0000 C   0  0  0  0  0  0  0  0  0  0  0  0
    9.7988   -1.4330    0.0000 C   0  0  0  0  0  0  0  0  0  0  0  0
   11.2988   -0.5670    0.0000 C   0  0  0  0  0  0  0  0  0  0  0  0
    5.7988    2.0311    0.0000 C   0  0  0  0  0  0  0  0  0  0  0  0
    4.2690    2.5311    0.0000 C   0  0  0  0  0  0  0  0  0  0  0  0
    6.7988    2.0311    0.0000 C   0  0  0  0  0  0  0  0  0  0  0  0
    4.2690    1.5311    0.0000 C   0  0  0  0  0  0  0  0  0  0  0  0
    5.2152    2.8358    0.0000 C   0  0  0  0  0  0  0  0  0  0  0  0
    9.7988    0.2990    0.0000 C   0  0  0  0  0  0  0  0  0  0  0  0
    7.2988    1.1651    0.0000 C   0  0  0  0  0  0  0  0  0  0  0  0
    8.2988    1.1651    0.0000 C   0  0  0  0  0  0  0  0  0  0  0  0
    8.7988    0.2990    0.0000 C   0  0  0  0  0  0  0  0  0  0  0  0
    3.4030    3.0311    0.0000 C   0  0  0  0  0  0  0  0  0  0  0  0
    7.2988    2.8971    0.0000 C   0  0  0  0  0  0  0  0  0  0  0  0
    8.2988    2.8971    0.0000 C   0  0  0  0  0  0  0  0  0  0  0  0
    2.5369    1.5311    0.0000 C   0  0  0  0  0  0  0  0  0  0  0  0
   12.7162   -4.2431    0.0000 H   0  0  0  0  0  0  0  0  0  0  0  0
   13.4065   -4.6417    0.0000 H   0  0  0  0  0  0  0  0  0  0  0  0
   13.4065   -1.6885    0.0000 H   0  0  0  0  0  0  0  0  0  0  0  0
   12.7162   -2.0870    0.0000 H   0  0  0  0  0  0  0  0  0  0  0  0
   11.2162   -3.3771    0.0000 H   0  0  0  0  0  0  0  0  0  0  0  0
   11.9065   -3.7756    0.0000 H   0  0  0  0  0  0  0  0  0  0  0  0
   14.1912   -4.6417    0.0000 H   0  0  0  0  0  0  0  0  0  0  0  0
   14.8814   -4.2431    0.0000 H   0  0  0  0  0  0  0  0  0  0  0  0
   14.8814   -2.0870    0.0000 H   0  0  0  0  0  0  0  0  0  0  0  0
   14.1912   -1.6885    0.0000 H   0  0  0  0  0  0  0  0  0  0  0  0
    9.9888   -2.8360    0.0000 H   0  0  0  0  0  0  0  0  0  0  0  0
   12.4188   -1.4330    0.0000 H   0  0  0  0  0  0  0  0  0  0  0  0
    9.1788   -1.4330    0.0000 H   0  0  0  0  0  0  0  0  0  0  0  0
   11.6088   -0.0301    0.0000 H   0  0  0  0  0  0  0  0  0  0  0  0
    5.4078    3.4251    0.0000 H   0  0  0  0  0  0  0  0  0  0  0  0
    5.4078    0.6370    0.0000 H   0  0  0  0  0  0  0  0  0  0  0  0
   10.1088    0.8360    0.0000 H   0  0  0  0  0  0  0  0  0  0  0  0
    6.9888    0.6281    0.0000 H   0  0  0  0  0  0  0  0  0  0  0  0
    8.4888   -0.2379    0.0000 H   0  0  0  0  0  0  0  0  0  0  0  0
    6.9888    3.4340    0.0000 H   0  0  0  0  0  0  0  0  0  0  0  0
    2.0000    2.8411    0.0000 H   0  0  0  0  0  0  0  0  0  0  0  0
    8.6088    3.4340    0.0000 H   0  0  0  0  0  0  0  0  0  0  0  0
    2.0000    1.2211    0.0000 H   0  0  0  0  0  0  0  0  0  0  0  0
  1 11  1  0  0  0  0
  1 12  1  0  0  0  0
  2 28  2  0  0  0  0
  3  8  1  0  0  0  0
  3  9  1  0  0  0  0
  3 10  1  0  0  0  0
  4 19  1  0  0  0  0
  4 22  1  0  0  0  0
  4 47  1  0  0  0  0
  5 22  1  0  0  0  0
  5 31  2  0  0  0  0
  6 28  1  0  0  0  0
  6 31  1  0  0  0  0
  6 52  1  0  0  0  0
  7 26  2  0  0  0  0
  7 30  1  0  0  0  0
  8 11  1  0  0  0  0
  8 32  1  0  0  0  0
  8 33  1  0  0  0  0
  9 12  1  0  0  0  0
  9 34  1  0  0  0  0
  9 35  1  0  0  0  0
 10 13  1  0  0  0  0
 10 36  1  0  0  0  0
 10 37  1  0  0  0  0
 11 38  1  0  0  0  0
 11 39  1  0  0  0  0
 12 40  1  0  0  0  0
 12 41  1  0  0  0  0
 13 14  2  0  0  0  0
 13 15  1  0  0  0  0
 14 17  1  0  0  0  0
 14 42  1  0  0  0  0
 15 18  2  0  0  0  0
 15 43  1  0  0  0  0
 16 17  2  0  0  0  0
 16 18  1  0  0  0  0
 16 24  1  0  0  0  0
 17 44  1  0  0  0  0
 18 45  1  0  0  0  0
 19 21  1  0  0  0  0
 19 23  2  0  0  0  0
 20 22  2  0  0  0  0
 20 23  1  0  0  0  0
 20 28  1  0  0  0  0
 21 25  2  0  0  0  0
 21 29  1  0  0  0  0
 23 46  1  0  0  0  0
 24 27  2  0  0  0  0
 24 48  1  0  0  0  0
 25 26  1  0  0  0  0
 25 49  1  0  0  0  0
 26 27  1  0  0  0  0
 27 50  1  0  0  0  0
 29 30  2  0  0  0  0
 29 51  1  0  0  0  0
 30 53  1  0  0  0  0
 31 54  1  0  0  0  0
M  END
> <PUBCHEM_COMPOUND_CID>
135524168

> <PUBCHEM_COMPOUND_CANONICALIZED>
1

> <PUBCHEM_CACTVS_COMPLEXITY>
669

> <PUBCHEM_CACTVS_HBOND_ACCEPTOR>
5

> <PUBCHEM_CACTVS_HBOND_DONOR>
2

> <PUBCHEM_CACTVS_ROTATABLE_BOND>
5

> <PUBCHEM_CACTVS_SUBSKEYS>
AAADceB7sAAAAAAAAAAAAAAAAAAAAWAAAAA8WIEAAAAAAEAB8AAAHgAQAAAADAjhngY9sJPJlACoAzd3dACCgCm1AiAJ2aE4ZNiKIPrA3ZGHIYhgkgLYyecciMCOQAAAAAAAAACAAAAAAAAAAAAAAAAAAA==

> <PUBCHEM_IUPAC_OPENEYE_NAME>
6-[2-[(E)-2-[4-(morpholinomethyl)phenyl]vinyl]-4-pyridyl]-3,7-dihydropyrrolo[2,3-d]pyrimidin-4-one

> <PUBCHEM_IUPAC_CAS_NAME>
6-[2-[(E)-2-[4-(4-morpholinylmethyl)phenyl]ethenyl]-4-pyridinyl]-3,7-dihydropyrrolo[2,3-d]pyrimidin-4-one

> <PUBCHEM_IUPAC_NAME_MARKUP>
6-[2-[(<I>E</I>)-2-[4-(morpholin-4-ylmethyl)phenyl]ethenyl]pyridin-4-yl]-3,7-dihydropyrrolo[2,3-d]pyrimidin-4-one

> <PUBCHEM_IUPAC_NAME>
6-[2-[(E)-2-[4-(morpholin-4-ylmethyl)phenyl]ethenyl]pyridin-4-yl]-3,7-dihydropyrrolo[2,3-d]pyrimidin-4-one

> <PUBCHEM_IUPAC_SYSTEMATIC_NAME>
6-[2-[(E)-2-[4-(morpholin-4-ylmethyl)phenyl]ethenyl]pyridin-4-yl]-3,7-dihydropyrrolo[2,3-d]pyrimidin-4-one

> <PUBCHEM_IUPAC_TRADITIONAL_NAME>
6-[2-[(E)-2-[4-(morpholinomethyl)phenyl]vinyl]-4-pyridyl]-3,7-dihydropyrrolo[2,3-d]pyrimidin-4-one

> <PUBCHEM_IUPAC_INCHI>
InChI=1S/C24H23N5O2/c30-24-21-14-22(28-23(21)26-16-27-24)19-7-8-25-20(13-19)6-5-17-1-3-18(4-2-17)15-29-9-11-31-12-10-29/h1-8,13-14,16H,9-12,15H2,(H2,26,27,28,30)/b6-5+

> <PUBCHEM_IUPAC_INCHIKEY>
AWZFCQRICMFIES-AATRIKPKSA-N

> <PUBCHEM_XLOGP3_AA>
2.2

> <PUBCHEM_EXACT_MASS>
413.18517499

> <PUBCHEM_MOLECULAR_FORMULA>
C24H23N5O2

> <PUBCHEM_MOLECULAR_WEIGHT>
413.5

> <PUBCHEM_SMILES>
C1COCCN1CC2=CC=C(C=C2)/C=C/C3=NC=CC(=C3)C4=CC5=C(N4)N=CNC5=O

> <PUBCHEM_OPENEYE_CAN_SMILES>
C1COCCN1CC2=CC=C(C=C2)C=CC3=NC=CC(=C3)C4=CC5=C(N4)N=CNC5=O

> <PUBCHEM_OPENEYE_ISO_SMILES>
C1COCCN1CC2=CC=C(C=C2)/C=C/C3=NC=CC(=C3)C4=CC5=C(N4)N=CNC5=O

> <PUBCHEM_CACTVS_TPSA>
82.6

> <PUBCHEM_MONOISOTOPIC_WEIGHT>
413.18517499

> <PUBCHEM_TOTAL_CHARGE>
0

> <PUBCHEM_HEAVY_ATOM_COUNT>
31

> <PUBCHEM_ATOM_DEF_STEREO_COUNT>
0

> <PUBCHEM_ATOM_UDEF_STEREO_COUNT>
0

> <PUBCHEM_BOND_DEF_STEREO_COUNT>
1

> <PUBCHEM_BOND_UDEF_STEREO_COUNT>
0

> <PUBCHEM_ISOTOPIC_ATOM_COUNT>
0

> <PUBCHEM_COMPONENT_COUNT>
1

> <PUBCHEM_CACTVS_TAUTO_COUNT>
-1

> <PUBCHEM_COORDINATE_TYPE>
1
5
255

> <PUBCHEM_BONDANNOTATIONS>
13  14  8
13  15  8
14  17  8
15  18  8
16  17  8
16  18  8
19  23  8
20  22  8
20  23  8
20  28  8
21  25  8
21  29  8
25  26  8
29  30  8
4  19  8
4  22  8
5  22  8
5  31  8
6  28  8
6  31  8
7  26  8
7  30  8

$$$$
