49830674
  -OEChem-03202500522D

 61 65  0     0  0  0  0  0  0999 V2000
    2.0000    5.5194    0.0000 Cl  0  0  0  0  0  0  0  0  0  0  0  0
    6.3301   -2.9806    0.0000 O   0  0  0  0  0  0  0  0  0  0  0  0
    4.5981    4.0194    0.0000 O   0  0  0  0  0  0  0  0  0  0  0  0
    8.1424   -1.7853    0.0000 N   0  0  0  0  0  0  0  0  0  0  0  0
    4.5981   -5.9806    0.0000 N   0  0  0  0  0  0  0  0  0  0  0  0
    8.7260   -0.9806    0.0000 N   0  0  0  0  0  0  0  0  0  0  0  0
    8.4530    0.7747    0.0000 N   0  0  0  0  0  0  0  0  0  0  0  0
    6.3301    4.0194    0.0000 N   0  0  0  0  0  0  0  0  0  0  0  0
    5.4641    5.5194    0.0000 N   0  0  0  0  0  0  0  0  0  0  0  0
    7.1962   -0.4806    0.0000 C   0  0  0  0  0  0  0  0  0  0  0  0
    7.1962   -1.4806    0.0000 C   0  0  0  0  0  0  0  0  0  0  0  0
    6.3301    0.0194    0.0000 C   0  0  0  0  0  0  0  0  0  0  0  0
    6.3301   -1.9806    0.0000 C   0  0  0  0  0  0  0  0  0  0  0  0
    5.4641   -4.4806    0.0000 C   0  0  0  0  0  0  0  0  0  0  0  0
    4.5981   -4.9806    0.0000 C   0  0  0  0  0  0  0  0  0  0  0  0
    5.4641   -3.4806    0.0000 C   0  0  0  0  0  0  0  0  0  0  0  0
    6.3301    1.0194    0.0000 C   0  0  0  0  0  0  0  0  0  0  0  0
    5.4641   -0.4806    0.0000 C   0  0  0  0  0  0  0  0  0  0  0  0
    8.1424   -0.1758    0.0000 C   0  0  0  0  0  0  0  0  0  0  0  0
    5.4641   -1.4806    0.0000 C   0  0  0  0  0  0  0  0  0  0  0  0
    7.1962    1.5194    0.0000 C   0  0  0  0  0  0  0  0  0  0  0  0
    5.4641    1.5194    0.0000 C   0  0  0  0  0  0  0  0  0  0  0  0
    3.7891   -6.5684    0.0000 C   0  0  0  0  0  0  0  0  0  0  0  0
    5.4071   -6.5684    0.0000 C   0  0  0  0  0  0  0  0  0  0  0  0
    6.3301    3.0194    0.0000 C   0  0  0  0  0  0  0  0  0  0  0  0
    7.1962    2.5194    0.0000 C   0  0  0  0  0  0  0  0  0  0  0  0
    5.4641    2.5194    0.0000 C   0  0  0  0  0  0  0  0  0  0  0  0
    4.0981   -7.5194    0.0000 C   0  0  0  0  0  0  0  0  0  0  0  0
    5.0981   -7.5194    0.0000 C   0  0  0  0  0  0  0  0  0  0  0  0
    5.4641    4.5194    0.0000 C   0  0  0  0  0  0  0  0  0  0  0  0
    4.5981    6.0194    0.0000 C   0  0  0  0  0  0  0  0  0  0  0  0
    3.7320    5.5194    0.0000 C   0  0  0  0  0  0  0  0  0  0  0  0
    4.5981    7.0194    0.0000 C   0  0  0  0  0  0  0  0  0  0  0  0
    2.8660    6.0194    0.0000 C   0  0  0  0  0  0  0  0  0  0  0  0
    3.7320    7.5194    0.0000 C   0  0  0  0  0  0  0  0  0  0  0  0
    2.8660    7.0194    0.0000 C   0  0  0  0  0  0  0  0  0  0  0  0
    5.6762   -5.0632    0.0000 H   0  0  0  0  0  0  0  0  0  0  0  0
    6.0747   -4.3729    0.0000 H   0  0  0  0  0  0  0  0  0  0  0  0
    4.3860   -4.3980    0.0000 H   0  0  0  0  0  0  0  0  0  0  0  0
    3.9875   -5.0882    0.0000 H   0  0  0  0  0  0  0  0  0  0  0  0
    5.2520   -2.8980    0.0000 H   0  0  0  0  0  0  0  0  0  0  0  0
    4.8535   -3.5882    0.0000 H   0  0  0  0  0  0  0  0  0  0  0  0
    4.9272   -0.1706    0.0000 H   0  0  0  0  0  0  0  0  0  0  0  0
    4.9272   -1.7906    0.0000 H   0  0  0  0  0  0  0  0  0  0  0  0
    8.3350   -2.3746    0.0000 H   0  0  0  0  0  0  0  0  0  0  0  0
    7.7331    1.2094    0.0000 H   0  0  0  0  0  0  0  0  0  0  0  0
    4.9272    1.2094    0.0000 H   0  0  0  0  0  0  0  0  0  0  0  0
    3.1994   -6.3768    0.0000 H   0  0  0  0  0  0  0  0  0  0  0  0
    5.9967   -6.3768    0.0000 H   0  0  0  0  0  0  0  0  0  0  0  0
    7.7331    2.8294    0.0000 H   0  0  0  0  0  0  0  0  0  0  0  0
    4.9272    2.8294    0.0000 H   0  0  0  0  0  0  0  0  0  0  0  0
    9.0597    0.9025    0.0000 H   0  0  0  0  0  0  0  0  0  0  0  0
    8.0390    1.2361    0.0000 H   0  0  0  0  0  0  0  0  0  0  0  0
    3.7336   -8.0210    0.0000 H   0  0  0  0  0  0  0  0  0  0  0  0
    5.4625   -8.0210    0.0000 H   0  0  0  0  0  0  0  0  0  0  0  0
    6.8671    4.3294    0.0000 H   0  0  0  0  0  0  0  0  0  0  0  0
    6.0010    5.8294    0.0000 H   0  0  0  0  0  0  0  0  0  0  0  0
    3.7320    4.8994    0.0000 H   0  0  0  0  0  0  0  0  0  0  0  0
    5.1350    7.3294    0.0000 H   0  0  0  0  0  0  0  0  0  0  0  0
    3.7320    8.1394    0.0000 H   0  0  0  0  0  0  0  0  0  0  0  0
    2.3291    7.3294    0.0000 H   0  0  0  0  0  0  0  0  0  0  0  0
  1 34  1  0  0  0  0
  2 13  1  0  0  0  0
  2 16  1  0  0  0  0
  3 30  2  0  0  0  0
  4  6  1  0  0  0  0
  4 11  1  0  0  0  0
  4 45  1  0  0  0  0
  5 15  1  0  0  0  0
  5 23  1  0  0  0  0
  5 24  1  0  0  0  0
  6 19  2  0  0  0  0
  7 19  1  0  0  0  0
  7 52  1  0  0  0  0
  7 53  1  0  0  0  0
  8 25  1  0  0  0  0
  8 30  1  0  0  0  0
  8 56  1  0  0  0  0
  9 30  1  0  0  0  0
  9 31  1  0  0  0  0
  9 57  1  0  0  0  0
 10 11  1  0  0  0  0
 10 12  2  0  0  0  0
 10 19  1  0  0  0  0
 11 13  2  0  0  0  0
 12 17  1  0  0  0  0
 12 18  1  0  0  0  0
 13 20  1  0  0  0  0
 14 15  1  0  0  0  0
 14 16  1  0  0  0  0
 14 37  1  0  0  0  0
 14 38  1  0  0  0  0
 15 39  1  0  0  0  0
 15 40  1  0  0  0  0
 16 41  1  0  0  0  0
 16 42  1  0  0  0  0
 17 21  2  0  0  0  0
 17 22  1  0  0  0  0
 18 20  2  0  0  0  0
 18 43  1  0  0  0  0
 20 44  1  0  0  0  0
 21 26  1  0  0  0  0
 21 46  1  0  0  0  0
 22 27  2  0  0  0  0
 22 47  1  0  0  0  0
 23 28  2  0  0  0  0
 23 48  1  0  0  0  0
 24 29  2  0  0  0  0
 24 49  1  0  0  0  0
 25 26  2  0  0  0  0
 25 27  1  0  0  0  0
 26 50  1  0  0  0  0
 27 51  1  0  0  0  0
 28 29  1  0  0  0  0
 28 54  1  0  0  0  0
 29 55  1  0  0  0  0
 31 32  2  0  0  0  0
 31 33  1  0  0  0  0
 32 34  1  0  0  0  0
 32 58  1  0  0  0  0
 33 35  2  0  0  0  0
 33 59  1  0  0  0  0
 34 36  2  0  0  0  0
 35 36  1  0  0  0  0
 35 60  1  0  0  0  0
 36 61  1  0  0  0  0
M  END
> <PUBCHEM_COMPOUND_CID>
49830674

> <PUBCHEM_COMPOUND_CANONICALIZED>
1

> <PUBCHEM_CACTVS_COMPLEXITY>
702

> <PUBCHEM_CACTVS_HBOND_ACCEPTOR>
4

> <PUBCHEM_CACTVS_HBOND_DONOR>
4

> <PUBCHEM_CACTVS_ROTATABLE_BOND>
8

> <PUBCHEM_CACTVS_SUBSKEYS>
AAADceB7sAAEAAAAAAAAAAAAAAAAAWLAAAAwYMAAAAAAAFgB/AAAHgIYAAAADA7hniY99vPvFACqAzZndASSjCIxZyAc+SA/bpiOJuLF89uHvCj+3BPI6CewwPAOqAABQAISEABQAAKABCQgAAAAAAAAAA==

> <PUBCHEM_IUPAC_OPENEYE_NAME>
1-[4-[3-amino-7-(3-pyrrol-1-ylpropoxy)-1H-indazol-4-yl]phenyl]-3-(3-chlorophenyl)urea

> <PUBCHEM_IUPAC_CAS_NAME>
1-[4-[3-amino-7-[3-(1-pyrrolyl)propoxy]-1H-indazol-4-yl]phenyl]-3-(3-chlorophenyl)urea

> <PUBCHEM_IUPAC_NAME_MARKUP>
1-[4-[3-amino-7-(3-pyrrol-1-ylpropoxy)-1<I>H</I>-indazol-4-yl]phenyl]-3-(3-chlorophenyl)urea

> <PUBCHEM_IUPAC_NAME>
1-[4-[3-amino-7-(3-pyrrol-1-ylpropoxy)-1H-indazol-4-yl]phenyl]-3-(3-chlorophenyl)urea

> <PUBCHEM_IUPAC_SYSTEMATIC_NAME>
1-[4-[3-azanyl-7-(3-pyrrol-1-ylpropoxy)-1H-indazol-4-yl]phenyl]-3-(3-chlorophenyl)urea

> <PUBCHEM_IUPAC_TRADITIONAL_NAME>
1-[4-[3-amino-7-(3-pyrrol-1-ylpropoxy)-1H-indazol-4-yl]phenyl]-3-(3-chlorophenyl)urea

> <PUBCHEM_IUPAC_INCHI>
InChI=1S/C27H25ClN6O2/c28-19-5-3-6-21(17-19)31-27(35)30-20-9-7-18(8-10-20)22-11-12-23(25-24(22)26(29)33-32-25)36-16-4-15-34-13-1-2-14-34/h1-3,5-14,17H,4,15-16H2,(H3,29,32,33)(H2,30,31,35)

> <PUBCHEM_IUPAC_INCHIKEY>
GSYNTOXSBKQRAW-UHFFFAOYSA-N

> <PUBCHEM_XLOGP3_AA>
4.7

> <PUBCHEM_EXACT_MASS>
500.1727518

> <PUBCHEM_MOLECULAR_FORMULA>
C27H25ClN6O2

> <PUBCHEM_MOLECULAR_WEIGHT>
501.0

> <PUBCHEM_SMILES>
C1=CN(C=C1)CCCOC2=C3C(=C(C=C2)C4=CC=C(C=C4)NC(=O)NC5=CC(=CC=C5)Cl)C(=NN3)N

> <PUBCHEM_OPENEYE_CAN_SMILES>
C1=CN(C=C1)CCCOC2=C3C(=C(C=C2)C4=CC=C(C=C4)NC(=O)NC5=CC(=CC=C5)Cl)C(=NN3)N

> <PUBCHEM_OPENEYE_ISO_SMILES>
C1=CN(C=C1)CCCOC2=C3C(=C(C=C2)C4=CC=C(C=C4)NC(=O)NC5=CC(=CC=C5)Cl)C(=NN3)N

> <PUBCHEM_CACTVS_TPSA>
110

> <PUBCHEM_MONOISOTOPIC_WEIGHT>
500.1727518

> <PUBCHEM_TOTAL_CHARGE>
0

> <PUBCHEM_HEAVY_ATOM_COUNT>
36

> <PUBCHEM_ATOM_DEF_STEREO_COUNT>
0

> <PUBCHEM_ATOM_UDEF_STEREO_COUNT>
0

> <PUBCHEM_BOND_DEF_STEREO_COUNT>
0

> <PUBCHEM_BOND_UDEF_STEREO_COUNT>
0

> <PUBCHEM_ISOTOPIC_ATOM_COUNT>
0

> <PUBCHEM_COMPONENT_COUNT>
1

> <PUBCHEM_CACTVS_TAUTO_COUNT>
-1

> <PUBCHEM_COORDINATE_TYPE>
1
5
255

> <PUBCHEM_BONDANNOTATIONS>
10  11  8
10  12  8
10  19  8
11  13  8
12  18  8
13  20  8
17  21  8
17  22  8
18  20  8
21  26  8
22  27  8
23  28  8
24  29  8
25  26  8
25  27  8
28  29  8
31  32  8
31  33  8
32  34  8
33  35  8
34  36  8
35  36  8
4  11  8
4  6  8
5  23  8
5  24  8
6  19  8

$$$$
