6017349
  -OEChem-03202504162D

 48 52  0     0  0  0  0  0  0999 V2000
   12.2641   -3.6251    0.0000 Br  0  0  0  0  0  0  0  0  0  0  0  0
    5.3923   -0.4462    0.0000 O   0  0  0  0  0  0  0  0  0  0  0  0
    7.6936   -2.1914    0.0000 O   0  0  0  0  0  0  0  0  0  0  0  0
    5.0274    1.2859    0.0000 N   0  0  0  0  0  0  0  0  0  0  0  0
    9.3997   -1.6769    0.0000 N   0  0  0  0  0  0  0  0  0  0  0  0
    9.8726   -0.7958    0.0000 N   0  0  0  0  0  0  0  0  0  0  0  0
    4.5274    2.8248    0.0000 N   0  0  0  0  0  0  0  0  0  0  0  0
    6.9478    4.3784    0.0000 N   0  0  0  0  0  0  0  0  0  0  0  0
    6.7328    0.7099    0.0000 C   0  0  0  0  0  0  0  0  0  0  0  0
    5.3364    2.2370    0.0000 C   0  0  0  0  0  0  0  0  0  0  0  0
    7.0547    1.7006    0.0000 C   0  0  0  0  0  0  0  0  0  0  0  0
    4.0274    1.2859    0.0000 C   0  0  0  0  0  0  0  0  0  0  0  0
    5.7123    0.5012    0.0000 C   0  0  0  0  0  0  0  0  0  0  0  0
    8.2802   -0.5087    0.0000 C   0  0  0  0  0  0  0  0  0  0  0  0
    6.3518    2.4692    0.0000 C   0  0  0  0  0  0  0  0  0  0  0  0
    7.3991   -0.0358    0.0000 C   0  0  0  0  0  0  0  0  0  0  0  0
    3.7183    2.2370    0.0000 C   0  0  0  0  0  0  0  0  0  0  0  0
    9.1807   -0.0738    0.0000 C   0  0  0  0  0  0  0  0  0  0  0  0
    8.4156   -1.4995    0.0000 C   0  0  0  0  0  0  0  0  0  0  0  0
    7.6673    2.4909    0.0000 C   0  0  0  0  0  0  0  0  0  0  0  0
    3.3424    0.5012    0.0000 C   0  0  0  0  0  0  0  0  0  0  0  0
    9.8346   -2.5774    0.0000 C   0  0  0  0  0  0  0  0  0  0  0  0
    2.7029    2.4692    0.0000 C   0  0  0  0  0  0  0  0  0  0  0  0
    9.3582    0.9103    0.0000 C   0  0  0  0  0  0  0  0  0  0  0  0
    2.3219    0.7099    0.0000 C   0  0  0  0  0  0  0  0  0  0  0  0
    2.0000    1.7006    0.0000 C   0  0  0  0  0  0  0  0  0  0  0  0
    6.6498    3.4238    0.0000 C   0  0  0  0  0  0  0  0  0  0  0  0
   10.8319   -2.6510    0.0000 C   0  0  0  0  0  0  0  0  0  0  0  0
    9.2722   -3.4043    0.0000 C   0  0  0  0  0  0  0  0  0  0  0  0
   11.2668   -3.5515    0.0000 C   0  0  0  0  0  0  0  0  0  0  0  0
    9.7071   -4.3048    0.0000 C   0  0  0  0  0  0  0  0  0  0  0  0
   10.7044   -4.3784    0.0000 C   0  0  0  0  0  0  0  0  0  0  0  0
    7.2052   -0.6247    0.0000 H   0  0  0  0  0  0  0  0  0  0  0  0
   10.4869   -0.7119    0.0000 H   0  0  0  0  0  0  0  0  0  0  0  0
    8.1574    2.1111    0.0000 H   0  0  0  0  0  0  0  0  0  0  0  0
    8.0472    2.9810    0.0000 H   0  0  0  0  0  0  0  0  0  0  0  0
    7.1773    2.8708    0.0000 H   0  0  0  0  0  0  0  0  0  0  0  0
    3.5408   -0.0862    0.0000 H   0  0  0  0  0  0  0  0  0  0  0  0
    2.5182    3.0611    0.0000 H   0  0  0  0  0  0  0  0  0  0  0  0
    9.9683    0.8003    0.0000 H   0  0  0  0  0  0  0  0  0  0  0  0
    9.4682    1.5205    0.0000 H   0  0  0  0  0  0  0  0  0  0  0  0
    8.7480    1.0204    0.0000 H   0  0  0  0  0  0  0  0  0  0  0  0
    1.9088    0.2476    0.0000 H   0  0  0  0  0  0  0  0  0  0  0  0
    1.3940    1.8318    0.0000 H   0  0  0  0  0  0  0  0  0  0  0  0
   11.1806   -2.1384    0.0000 H   0  0  0  0  0  0  0  0  0  0  0  0
    8.6539   -3.3586    0.0000 H   0  0  0  0  0  0  0  0  0  0  0  0
    9.3585   -4.8174    0.0000 H   0  0  0  0  0  0  0  0  0  0  0  0
   10.9741   -4.9367    0.0000 H   0  0  0  0  0  0  0  0  0  0  0  0
  1 30  1  0  0  0  0
  2 13  2  0  0  0  0
  3 19  2  0  0  0  0
  4 10  1  0  0  0  0
  4 12  1  0  0  0  0
  4 13  1  0  0  0  0
  5  6  1  0  0  0  0
  5 19  1  0  0  0  0
  5 22  1  0  0  0  0
  6 18  1  0  0  0  0
  6 34  1  0  0  0  0
  7 10  2  0  0  0  0
  7 17  1  0  0  0  0
  8 27  3  0  0  0  0
  9 11  1  0  0  0  0
  9 13  1  0  0  0  0
  9 16  2  0  0  0  0
 10 15  1  0  0  0  0
 11 15  2  0  0  0  0
 11 20  1  0  0  0  0
 12 17  1  0  0  0  0
 12 21  2  0  0  0  0
 14 16  1  0  0  0  0
 14 18  2  0  0  0  0
 14 19  1  0  0  0  0
 15 27  1  0  0  0  0
 16 33  1  0  0  0  0
 17 23  2  0  0  0  0
 18 24  1  0  0  0  0
 20 35  1  0  0  0  0
 20 36  1  0  0  0  0
 20 37  1  0  0  0  0
 21 25  1  0  0  0  0
 21 38  1  0  0  0  0
 22 28  2  0  0  0  0
 22 29  1  0  0  0  0
 23 26  1  0  0  0  0
 23 39  1  0  0  0  0
 24 40  1  0  0  0  0
 24 41  1  0  0  0  0
 24 42  1  0  0  0  0
 25 26  2  0  0  0  0
 25 43  1  0  0  0  0
 26 44  1  0  0  0  0
 28 30  1  0  0  0  0
 28 45  1  0  0  0  0
 29 31  2  0  0  0  0
 29 46  1  0  0  0  0
 30 32  2  0  0  0  0
 31 32  1  0  0  0  0
 31 47  1  0  0  0  0
 32 48  1  0  0  0  0
M  END
> <PUBCHEM_COMPOUND_CID>
6017349

> <PUBCHEM_COMPOUND_CANONICALIZED>
1

> <PUBCHEM_CACTVS_COMPLEXITY>
1010

> <PUBCHEM_CACTVS_HBOND_ACCEPTOR>
5

> <PUBCHEM_CACTVS_HBOND_DONOR>
1

> <PUBCHEM_CACTVS_ROTATABLE_BOND>
2

> <PUBCHEM_CACTVS_SUBSKEYS>
AAADceB7sAAAEAAAAAAAAAAAAAAAAWIAAAAwYIAAAAAAAFgB9AAAHgBYAAABrAiBlwAz0LduEAC4BydydACihC0hEqQbuCEwdPiI6LLAmZGUIAholQLIy/cQAAAAAAAAAAEAACAAAAAAAgAAQAAAAAAAAA==

> <PUBCHEM_IUPAC_OPENEYE_NAME>
(2E)-2-[[2-(3-bromophenyl)-5-methyl-3-oxo-1H-pyrazol-4-yl]methylene]-3-methyl-1-oxo-pyrido[1,2-a]benzimidazole-4-carbonitrile

> <PUBCHEM_IUPAC_CAS_NAME>
(2E)-2-[[2-(3-bromophenyl)-5-methyl-3-oxo-1H-pyrazol-4-yl]methylidene]-3-methyl-1-oxo-4-pyrido[1,2-a]benzimidazolecarbonitrile

> <PUBCHEM_IUPAC_NAME_MARKUP>
(2<I>E</I>)-2-[[2-(3-bromophenyl)-5-methyl-3-oxo-1<I>H</I>-pyrazol-4-yl]methylidene]-3-methyl-1-oxopyrido[1,2-a]benzimidazole-4-carbonitrile

> <PUBCHEM_IUPAC_NAME>
(2E)-2-[[2-(3-bromophenyl)-5-methyl-3-oxo-1H-pyrazol-4-yl]methylidene]-3-methyl-1-oxopyrido[1,2-a]benzimidazole-4-carbonitrile

> <PUBCHEM_IUPAC_SYSTEMATIC_NAME>
(2E)-2-[[2-(3-bromophenyl)-5-methyl-3-oxidanylidene-1H-pyrazol-4-yl]methylidene]-3-methyl-1-oxidanylidene-pyrido[1,2-a]benzimidazole-4-carbonitrile

> <PUBCHEM_IUPAC_TRADITIONAL_NAME>
(2E)-2-[[1-(3-bromophenyl)-5-keto-3-methyl-3-pyrazolin-4-yl]methylene]-1-keto-3-methyl-pyrido[1,2-a]benzimidazole-4-carbonitrile

> <PUBCHEM_IUPAC_INCHI>
InChI=1S/C24H16BrN5O2/c1-13-17(11-18-14(2)28-30(24(18)32)16-7-5-6-15(25)10-16)23(31)29-21-9-4-3-8-20(21)27-22(29)19(13)12-26/h3-11,28H,1-2H3/b17-11+

> <PUBCHEM_IUPAC_INCHIKEY>
MZRQJSKJXYQZCZ-GZTJUZNOSA-N

> <PUBCHEM_XLOGP3_AA>
3.9

> <PUBCHEM_EXACT_MASS>
485.04874

> <PUBCHEM_MOLECULAR_FORMULA>
C24H16BrN5O2

> <PUBCHEM_MOLECULAR_WEIGHT>
486.3

> <PUBCHEM_SMILES>
CC\1=C(C2=NC3=CC=CC=C3N2C(=O)/C1=C/C4=C(NN(C4=O)C5=CC(=CC=C5)Br)C)C#N

> <PUBCHEM_OPENEYE_CAN_SMILES>
CC1=C(C2=NC3=CC=CC=C3N2C(=O)C1=CC4=C(NN(C4=O)C5=CC(=CC=C5)Br)C)C#N

> <PUBCHEM_OPENEYE_ISO_SMILES>
CC\1=C(C2=NC3=CC=CC=C3N2C(=O)/C1=C/C4=C(NN(C4=O)C5=CC(=CC=C5)Br)C)C#N

> <PUBCHEM_CACTVS_TPSA>
91

> <PUBCHEM_MONOISOTOPIC_WEIGHT>
485.04874

> <PUBCHEM_TOTAL_CHARGE>
0

> <PUBCHEM_HEAVY_ATOM_COUNT>
32

> <PUBCHEM_ATOM_DEF_STEREO_COUNT>
0

> <PUBCHEM_ATOM_UDEF_STEREO_COUNT>
0

> <PUBCHEM_BOND_DEF_STEREO_COUNT>
1

> <PUBCHEM_BOND_UDEF_STEREO_COUNT>
0

> <PUBCHEM_ISOTOPIC_ATOM_COUNT>
0

> <PUBCHEM_COMPONENT_COUNT>
1

> <PUBCHEM_CACTVS_TAUTO_COUNT>
-1

> <PUBCHEM_COORDINATE_TYPE>
1
5
255

> <PUBCHEM_BONDANNOTATIONS>
10  15  8
11  15  8
12  17  8
12  21  8
14  18  8
14  19  8
17  23  8
21  25  8
22  28  8
22  29  8
23  26  8
25  26  8
28  30  8
29  31  8
30  32  8
31  32  8
4  10  8
4  12  8
4  13  8
5  19  8
5  6  8
6  18  8
7  10  8
7  17  8
9  11  8
9  13  8

$$$$
