14802482
  -OEChem-03202505422D

 34 35  0     0  0  0  0  0  0999 V2000
    4.5981   -0.7327    0.0000 S   0  0  0  0  0  0  0  0  0  0  0  0
    3.5981   -0.7327    0.0000 O   0  0  0  0  0  0  0  0  0  0  0  0
    5.5981   -0.7327    0.0000 O   0  0  0  0  0  0  0  0  0  0  0  0
    2.8660    3.2673    0.0000 O   0  0  0  0  0  0  0  0  0  0  0  0
    2.0000    1.7673    0.0000 O   0  0  0  0  0  0  0  0  0  0  0  0
    4.5981    0.2673    0.0000 N   0  0  0  0  0  0  0  0  0  0  0  0
    7.2641   -3.2535    0.0000 N   0  0  0  0  0  0  0  0  0  0  0  0
    4.5981   -1.7327    0.0000 C   0  0  0  0  0  0  0  0  0  0  0  0
    5.4641   -2.2327    0.0000 C   0  0  0  0  0  0  0  0  0  0  0  0
    3.7320    0.7673    0.0000 C   0  0  0  0  0  0  0  0  0  0  0  0
    5.4641   -3.2327    0.0000 C   0  0  0  0  0  0  0  0  0  0  0  0
    3.7320   -2.2327    0.0000 C   0  0  0  0  0  0  0  0  0  0  0  0
    3.7320    1.7673    0.0000 C   0  0  0  0  0  0  0  0  0  0  0  0
    4.5981   -3.7327    0.0000 C   0  0  0  0  0  0  0  0  0  0  0  0
    6.3580   -1.6980    0.0000 C   0  0  0  0  0  0  0  0  0  0  0  0
    3.7320   -3.2327    0.0000 C   0  0  0  0  0  0  0  0  0  0  0  0
    6.3580   -3.7673    0.0000 C   0  0  0  0  0  0  0  0  0  0  0  0
    7.2641   -2.2118    0.0000 C   0  0  0  0  0  0  0  0  0  0  0  0
    2.8660    2.2673    0.0000 C   0  0  0  0  0  0  0  0  0  0  0  0
    2.0000    3.7673    0.0000 C   0  0  0  0  0  0  0  0  0  0  0  0
    3.1215    0.8750    0.0000 H   0  0  0  0  0  0  0  0  0  0  0  0
    3.5200    0.1847    0.0000 H   0  0  0  0  0  0  0  0  0  0  0  0
    5.1350    0.5773    0.0000 H   0  0  0  0  0  0  0  0  0  0  0  0
    3.1951   -1.9227    0.0000 H   0  0  0  0  0  0  0  0  0  0  0  0
    4.3426    1.6597    0.0000 H   0  0  0  0  0  0  0  0  0  0  0  0
    3.9441    2.3499    0.0000 H   0  0  0  0  0  0  0  0  0  0  0  0
    4.5981   -4.3527    0.0000 H   0  0  0  0  0  0  0  0  0  0  0  0
    6.3509   -1.0780    0.0000 H   0  0  0  0  0  0  0  0  0  0  0  0
    3.1951   -3.5427    0.0000 H   0  0  0  0  0  0  0  0  0  0  0  0
    6.3509   -4.3873    0.0000 H   0  0  0  0  0  0  0  0  0  0  0  0
    7.7998   -1.8998    0.0000 H   0  0  0  0  0  0  0  0  0  0  0  0
    2.3100    4.3043    0.0000 H   0  0  0  0  0  0  0  0  0  0  0  0
    1.4631    4.0773    0.0000 H   0  0  0  0  0  0  0  0  0  0  0  0
    1.6900    3.2304    0.0000 H   0  0  0  0  0  0  0  0  0  0  0  0
  1  2  2  0  0  0  0
  1  3  2  0  0  0  0
  1  6  1  0  0  0  0
  1  8  1  0  0  0  0
  4 19  1  0  0  0  0
  4 20  1  0  0  0  0
  5 19  2  0  0  0  0
  6 10  1  0  0  0  0
  6 23  1  0  0  0  0
  7 17  2  0  0  0  0
  7 18  1  0  0  0  0
  8  9  1  0  0  0  0
  8 12  2  0  0  0  0
  9 11  2  0  0  0  0
  9 15  1  0  0  0  0
 10 13  1  0  0  0  0
 10 21  1  0  0  0  0
 10 22  1  0  0  0  0
 11 14  1  0  0  0  0
 11 17  1  0  0  0  0
 12 16  1  0  0  0  0
 12 24  1  0  0  0  0
 13 19  1  0  0  0  0
 13 25  1  0  0  0  0
 13 26  1  0  0  0  0
 14 16  2  0  0  0  0
 14 27  1  0  0  0  0
 15 18  2  0  0  0  0
 15 28  1  0  0  0  0
 16 29  1  0  0  0  0
 17 30  1  0  0  0  0
 18 31  1  0  0  0  0
 20 32  1  0  0  0  0
 20 33  1  0  0  0  0
 20 34  1  0  0  0  0
M  END
> <PUBCHEM_COMPOUND_CID>
14802482

> <PUBCHEM_COMPOUND_CANONICALIZED>
1

> <PUBCHEM_CACTVS_COMPLEXITY>
432

> <PUBCHEM_CACTVS_HBOND_ACCEPTOR>
6

> <PUBCHEM_CACTVS_HBOND_DONOR>
1

> <PUBCHEM_CACTVS_ROTATABLE_BOND>
6

> <PUBCHEM_CACTVS_SUBSKEYS>
AAADccBzOABAAAAAAAAAAAAAAAAAAAAAAAA8QAAAAAAAAACx8AAAHgQQQAAADADB2gY+idJIFAKoAjD3THDCgDAxAiAI2Lk4ZJgIIOrAkZGEIAhikADIyAcQgIAOgAAAgAAUAAAAAAEAACgAAAAAAAAAAA==

> <PUBCHEM_IUPAC_OPENEYE_NAME>
methyl 3-(5-isoquinolylsulfonylamino)propanoate

> <PUBCHEM_IUPAC_CAS_NAME>
3-(5-isoquinolinylsulfonylamino)propanoic acid methyl ester

> <PUBCHEM_IUPAC_NAME_MARKUP>
methyl 3-(isoquinolin-5-ylsulfonylamino)propanoate

> <PUBCHEM_IUPAC_NAME>
methyl 3-(isoquinolin-5-ylsulfonylamino)propanoate

> <PUBCHEM_IUPAC_SYSTEMATIC_NAME>
methyl 3-(isoquinolin-5-ylsulfonylamino)propanoate

> <PUBCHEM_IUPAC_TRADITIONAL_NAME>
3-(5-isoquinolylsulfonylamino)propionic acid methyl ester

> <PUBCHEM_IUPAC_INCHI>
InChI=1S/C13H14N2O4S/c1-19-13(16)6-8-15-20(17,18)12-4-2-3-10-9-14-7-5-11(10)12/h2-5,7,9,15H,6,8H2,1H3

> <PUBCHEM_IUPAC_INCHIKEY>
ZQMZSBHUOJQOFL-UHFFFAOYSA-N

> <PUBCHEM_XLOGP3_AA>
0.9

> <PUBCHEM_EXACT_MASS>
294.06742811

> <PUBCHEM_MOLECULAR_FORMULA>
C13H14N2O4S

> <PUBCHEM_MOLECULAR_WEIGHT>
294.33

> <PUBCHEM_SMILES>
COC(=O)CCNS(=O)(=O)C1=CC=CC2=C1C=CN=C2

> <PUBCHEM_OPENEYE_CAN_SMILES>
COC(=O)CCNS(=O)(=O)C1=CC=CC2=C1C=CN=C2

> <PUBCHEM_OPENEYE_ISO_SMILES>
COC(=O)CCNS(=O)(=O)C1=CC=CC2=C1C=CN=C2

> <PUBCHEM_CACTVS_TPSA>
93.7

> <PUBCHEM_MONOISOTOPIC_WEIGHT>
294.06742811

> <PUBCHEM_TOTAL_CHARGE>
0

> <PUBCHEM_HEAVY_ATOM_COUNT>
20

> <PUBCHEM_ATOM_DEF_STEREO_COUNT>
0

> <PUBCHEM_ATOM_UDEF_STEREO_COUNT>
0

> <PUBCHEM_BOND_DEF_STEREO_COUNT>
0

> <PUBCHEM_BOND_UDEF_STEREO_COUNT>
0

> <PUBCHEM_ISOTOPIC_ATOM_COUNT>
0

> <PUBCHEM_COMPONENT_COUNT>
1

> <PUBCHEM_CACTVS_TAUTO_COUNT>
-1

> <PUBCHEM_COORDINATE_TYPE>
1
5
255

> <PUBCHEM_BONDANNOTATIONS>
11  14  8
11  17  8
12  16  8
14  16  8
15  18  8
7  17  8
7  18  8
8  12  8
8  9  8
9  11  8
9  15  8

$$$$
