5329902
  -OEChem-03202500352D

 49 52  0     0  0  0  0  0  0999 V2000
    7.5870   -5.6276    0.0000 O   0  0  0  0  0  0  0  0  0  0  0  0
    3.7320    1.1276    0.0000 O   0  0  0  0  0  0  0  0  0  0  0  0
    7.8600   -3.8724    0.0000 N   0  0  0  0  0  0  0  0  0  0  0  0
    5.4641    1.1276    0.0000 N   0  0  0  0  0  0  0  0  0  0  0  0
    4.5981    2.6276    0.0000 N   0  0  0  0  0  0  0  0  0  0  0  0
    6.3301   -3.3724    0.0000 C   0  0  0  0  0  0  0  0  0  0  0  0
    5.4641   -2.8724    0.0000 C   0  0  0  0  0  0  0  0  0  0  0  0
    7.2764   -3.0676    0.0000 C   0  0  0  0  0  0  0  0  0  0  0  0
    6.3301   -4.3724    0.0000 C   0  0  0  0  0  0  0  0  0  0  0  0
    5.4641   -1.8724    0.0000 C   0  0  0  0  0  0  0  0  0  0  0  0
    7.2764   -4.6771    0.0000 C   0  0  0  0  0  0  0  0  0  0  0  0
    4.5981   -3.3724    0.0000 C   0  0  0  0  0  0  0  0  0  0  0  0
    5.4641   -4.8724    0.0000 C   0  0  0  0  0  0  0  0  0  0  0  0
    6.3301   -1.3724    0.0000 C   0  0  0  0  0  0  0  0  0  0  0  0
    6.3301   -0.3724    0.0000 C   0  0  0  0  0  0  0  0  0  0  0  0
    4.5981   -4.3724    0.0000 C   0  0  0  0  0  0  0  0  0  0  0  0
    4.5981   -1.3724    0.0000 C   0  0  0  0  0  0  0  0  0  0  0  0
    5.4641    0.1276    0.0000 C   0  0  0  0  0  0  0  0  0  0  0  0
    4.5981   -0.3724    0.0000 C   0  0  0  0  0  0  0  0  0  0  0  0
    7.1962    0.1276    0.0000 C   0  0  0  0  0  0  0  0  0  0  0  0
    4.5981    1.6276    0.0000 C   0  0  0  0  0  0  0  0  0  0  0  0
    3.7320    3.1276    0.0000 C   0  0  0  0  0  0  0  0  0  0  0  0
    3.7320    4.1276    0.0000 C   0  0  0  0  0  0  0  0  0  0  0  0
    2.8660    4.6276    0.0000 C   0  0  0  0  0  0  0  0  0  0  0  0
    2.8660    2.6276    0.0000 C   0  0  0  0  0  0  0  0  0  0  0  0
    2.0000    4.1276    0.0000 C   0  0  0  0  0  0  0  0  0  0  0  0
    2.0000    3.1276    0.0000 C   0  0  0  0  0  0  0  0  0  0  0  0
    2.8660    5.6276    0.0000 C   0  0  0  0  0  0  0  0  0  0  0  0
    7.8137   -2.7584    0.0000 H   0  0  0  0  0  0  0  0  0  0  0  0
    7.0253   -2.5007    0.0000 H   0  0  0  0  0  0  0  0  0  0  0  0
    8.4800   -3.8724    0.0000 H   0  0  0  0  0  0  0  0  0  0  0  0
    4.0611   -3.0624    0.0000 H   0  0  0  0  0  0  0  0  0  0  0  0
    5.4641   -5.4924    0.0000 H   0  0  0  0  0  0  0  0  0  0  0  0
    6.8671   -1.6824    0.0000 H   0  0  0  0  0  0  0  0  0  0  0  0
    4.0611   -4.6824    0.0000 H   0  0  0  0  0  0  0  0  0  0  0  0
    4.0611   -1.6824    0.0000 H   0  0  0  0  0  0  0  0  0  0  0  0
    4.0611   -0.0624    0.0000 H   0  0  0  0  0  0  0  0  0  0  0  0
    7.5062   -0.4093    0.0000 H   0  0  0  0  0  0  0  0  0  0  0  0
    7.7331    0.4376    0.0000 H   0  0  0  0  0  0  0  0  0  0  0  0
    6.8862    0.6646    0.0000 H   0  0  0  0  0  0  0  0  0  0  0  0
    6.0010    1.4376    0.0000 H   0  0  0  0  0  0  0  0  0  0  0  0
    5.1350    2.9376    0.0000 H   0  0  0  0  0  0  0  0  0  0  0  0
    4.2690    4.4376    0.0000 H   0  0  0  0  0  0  0  0  0  0  0  0
    2.8660    2.0076    0.0000 H   0  0  0  0  0  0  0  0  0  0  0  0
    1.4631    4.4376    0.0000 H   0  0  0  0  0  0  0  0  0  0  0  0
    1.4631    2.8176    0.0000 H   0  0  0  0  0  0  0  0  0  0  0  0
    3.4860    5.6276    0.0000 H   0  0  0  0  0  0  0  0  0  0  0  0
    2.8660    6.2476    0.0000 H   0  0  0  0  0  0  0  0  0  0  0  0
    2.2460    5.6276    0.0000 H   0  0  0  0  0  0  0  0  0  0  0  0
  1 11  2  0  0  0  0
  2 21  2  0  0  0  0
  3  8  1  0  0  0  0
  3 11  1  0  0  0  0
  3 31  1  0  0  0  0
  4 18  1  0  0  0  0
  4 21  1  0  0  0  0
  4 41  1  0  0  0  0
  5 21  1  0  0  0  0
  5 22  1  0  0  0  0
  5 42  1  0  0  0  0
  6  7  2  0  0  0  0
  6  8  1  0  0  0  0
  6  9  1  0  0  0  0
  7 10  1  0  0  0  0
  7 12  1  0  0  0  0
  8 29  1  0  0  0  0
  8 30  1  0  0  0  0
  9 11  1  0  0  0  0
  9 13  2  0  0  0  0
 10 14  2  0  0  0  0
 10 17  1  0  0  0  0
 12 16  2  0  0  0  0
 12 32  1  0  0  0  0
 13 16  1  0  0  0  0
 13 33  1  0  0  0  0
 14 15  1  0  0  0  0
 14 34  1  0  0  0  0
 15 18  2  0  0  0  0
 15 20  1  0  0  0  0
 16 35  1  0  0  0  0
 17 19  2  0  0  0  0
 17 36  1  0  0  0  0
 18 19  1  0  0  0  0
 19 37  1  0  0  0  0
 20 38  1  0  0  0  0
 20 39  1  0  0  0  0
 20 40  1  0  0  0  0
 22 23  1  0  0  0  0
 22 25  2  0  0  0  0
 23 24  2  0  0  0  0
 23 43  1  0  0  0  0
 24 26  1  0  0  0  0
 24 28  1  0  0  0  0
 25 27  1  0  0  0  0
 25 44  1  0  0  0  0
 26 27  2  0  0  0  0
 26 45  1  0  0  0  0
 27 46  1  0  0  0  0
 28 47  1  0  0  0  0
 28 48  1  0  0  0  0
 28 49  1  0  0  0  0
M  END
> <PUBCHEM_COMPOUND_CID>
5329902

> <PUBCHEM_COMPOUND_CANONICALIZED>
1

> <PUBCHEM_CACTVS_COMPLEXITY>
580

> <PUBCHEM_CACTVS_HBOND_ACCEPTOR>
2

> <PUBCHEM_CACTVS_HBOND_DONOR>
3

> <PUBCHEM_CACTVS_ROTATABLE_BOND>
3

> <PUBCHEM_CACTVS_SUBSKEYS>
AAADceB7MAAAAAAAAAAAAAAAAAAAAWAAAAAwYMAAAAAAAFgBUAAAHgAQAAAADAjBmAQzwILAAACIAiVSUACCAAAlAgAIiIEIZMiIIDLAlZGEIQholgLIyacciMCOiAACQAASAAAQAASAACQAAAAAAAAAAA==

> <PUBCHEM_IUPAC_OPENEYE_NAME>
1-[2-methyl-4-(1-oxoisoindolin-4-yl)phenyl]-3-(m-tolyl)urea

> <PUBCHEM_IUPAC_CAS_NAME>
1-[2-methyl-4-(1-oxo-2,3-dihydroisoindol-4-yl)phenyl]-3-(3-methylphenyl)urea

> <PUBCHEM_IUPAC_NAME_MARKUP>
1-[2-methyl-4-(1-oxo-2,3-dihydroisoindol-4-yl)phenyl]-3-(3-methylphenyl)urea

> <PUBCHEM_IUPAC_NAME>
1-[2-methyl-4-(1-oxo-2,3-dihydroisoindol-4-yl)phenyl]-3-(3-methylphenyl)urea

> <PUBCHEM_IUPAC_SYSTEMATIC_NAME>
1-[2-methyl-4-(1-oxidanylidene-2,3-dihydroisoindol-4-yl)phenyl]-3-(3-methylphenyl)urea

> <PUBCHEM_IUPAC_TRADITIONAL_NAME>
1-[4-(1-ketoisoindolin-4-yl)-2-methyl-phenyl]-3-(m-tolyl)urea

> <PUBCHEM_IUPAC_INCHI>
InChI=1S/C23H21N3O2/c1-14-5-3-6-17(11-14)25-23(28)26-21-10-9-16(12-15(21)2)18-7-4-8-19-20(18)13-24-22(19)27/h3-12H,13H2,1-2H3,(H,24,27)(H2,25,26,28)

> <PUBCHEM_IUPAC_INCHIKEY>
BOBGABAXWFYHQX-UHFFFAOYSA-N

> <PUBCHEM_XLOGP3_AA>
3.7

> <PUBCHEM_EXACT_MASS>
371.16337692

> <PUBCHEM_MOLECULAR_FORMULA>
C23H21N3O2

> <PUBCHEM_MOLECULAR_WEIGHT>
371.4

> <PUBCHEM_SMILES>
CC1=CC(=CC=C1)NC(=O)NC2=C(C=C(C=C2)C3=C4CNC(=O)C4=CC=C3)C

> <PUBCHEM_OPENEYE_CAN_SMILES>
CC1=CC(=CC=C1)NC(=O)NC2=C(C=C(C=C2)C3=C4CNC(=O)C4=CC=C3)C

> <PUBCHEM_OPENEYE_ISO_SMILES>
CC1=CC(=CC=C1)NC(=O)NC2=C(C=C(C=C2)C3=C4CNC(=O)C4=CC=C3)C

> <PUBCHEM_CACTVS_TPSA>
70.2

> <PUBCHEM_MONOISOTOPIC_WEIGHT>
371.16337692

> <PUBCHEM_TOTAL_CHARGE>
0

> <PUBCHEM_HEAVY_ATOM_COUNT>
28

> <PUBCHEM_ATOM_DEF_STEREO_COUNT>
0

> <PUBCHEM_ATOM_UDEF_STEREO_COUNT>
0

> <PUBCHEM_BOND_DEF_STEREO_COUNT>
0

> <PUBCHEM_BOND_UDEF_STEREO_COUNT>
0

> <PUBCHEM_ISOTOPIC_ATOM_COUNT>
0

> <PUBCHEM_COMPONENT_COUNT>
1

> <PUBCHEM_CACTVS_TAUTO_COUNT>
-1

> <PUBCHEM_COORDINATE_TYPE>
1
5
255

> <PUBCHEM_BONDANNOTATIONS>
10  14  8
10  17  8
12  16  8
13  16  8
14  15  8
15  18  8
17  19  8
18  19  8
22  23  8
22  25  8
23  24  8
24  26  8
25  27  8
26  27  8
6  7  8
6  9  8
7  12  8
9  13  8

$$$$
