44328786
  -OEChem-03202507322D

 64 70  0     0  0  0  0  0  0999 V2000
   13.7184   -1.7552    0.0000 O   0  0  0  0  0  0  0  0  0  0  0  0
    7.0570    0.5484    0.0000 O   0  0  0  0  0  0  0  0  0  0  0  0
    2.6704    0.6981    0.0000 O   0  0  0  0  0  0  0  0  0  0  0  0
    3.9556   -0.4631    0.0000 O   0  0  0  0  0  0  0  0  0  0  0  0
    9.9925    1.1671    0.0000 N   0  0  0  0  0  0  0  0  0  0  0  0
    9.9925   -1.1671    0.0000 N   0  0  0  0  0  0  0  0  0  0  0  0
   13.9914    0.0000    0.0000 N   0  0  0  0  0  0  0  0  0  0  0  0
    6.6998    2.2433    0.0000 N   0  0  0  0  0  0  0  0  0  0  0  0
    4.1124    2.2090    0.0000 N   0  0  0  0  0  0  0  0  0  0  0  0
   10.7295    0.5000    0.0000 C   0  0  0  0  0  0  0  0  0  0  0  0
   11.5955    1.0000    0.0000 C   0  0  0  0  0  0  0  0  0  0  0  0
   12.4615    0.5000    0.0000 C   0  0  0  0  0  0  0  0  0  0  0  0
   10.7295   -0.5000    0.0000 C   0  0  0  0  0  0  0  0  0  0  0  0
   11.5955   -1.0000    0.0000 C   0  0  0  0  0  0  0  0  0  0  0  0
   12.4615   -0.5000    0.0000 C   0  0  0  0  0  0  0  0  0  0  0  0
   11.3863    1.9718    0.0000 C   0  0  0  0  0  0  0  0  0  0  0  0
   10.3976    2.0749    0.0000 C   0  0  0  0  0  0  0  0  0  0  0  0
   13.4078    0.8047    0.0000 C   0  0  0  0  0  0  0  0  0  0  0  0
   11.3863   -1.9718    0.0000 C   0  0  0  0  0  0  0  0  0  0  0  0
    9.0140    0.9609    0.0000 C   0  0  0  0  0  0  0  0  0  0  0  0
   10.3976   -2.0749    0.0000 C   0  0  0  0  0  0  0  0  0  0  0  0
   13.4078   -0.8047    0.0000 C   0  0  0  0  0  0  0  0  0  0  0  0
   12.0071    2.8006    0.0000 C   0  0  0  0  0  0  0  0  0  0  0  0
    9.9611    3.0138    0.0000 C   0  0  0  0  0  0  0  0  0  0  0  0
    8.3461    1.7052    0.0000 C   0  0  0  0  0  0  0  0  0  0  0  0
   12.0071   -2.8006    0.0000 C   0  0  0  0  0  0  0  0  0  0  0  0
    9.9611   -3.0138    0.0000 C   0  0  0  0  0  0  0  0  0  0  0  0
   11.5924    3.7494    0.0000 C   0  0  0  0  0  0  0  0  0  0  0  0
   10.5625    3.8567    0.0000 C   0  0  0  0  0  0  0  0  0  0  0  0
   11.5924   -3.7494    0.0000 C   0  0  0  0  0  0  0  0  0  0  0  0
   10.5625   -3.8567    0.0000 C   0  0  0  0  0  0  0  0  0  0  0  0
    7.3676    1.4990    0.0000 C   0  0  0  0  0  0  0  0  0  0  0  0
    5.7213    2.0370    0.0000 C   0  0  0  0  0  0  0  0  0  0  0  0
    4.9793    2.7074    0.0000 C   0  0  0  0  0  0  0  0  0  0  0  0
    5.3130    1.1242    0.0000 C   0  0  0  0  0  0  0  0  0  0  0  0
    4.3186    1.2304    0.0000 C   0  0  0  0  0  0  0  0  0  0  0  0
    3.1996    2.6173    0.0000 C   0  0  0  0  0  0  0  0  0  0  0  0
    3.6482    0.4885    0.0000 C   0  0  0  0  0  0  0  0  0  0  0  0
    2.0000   -0.0439    0.0000 C   0  0  0  0  0  0  0  0  0  0  0  0
   13.9451    1.1140    0.0000 H   0  0  0  0  0  0  0  0  0  0  0  0
   13.1567    1.3716    0.0000 H   0  0  0  0  0  0  0  0  0  0  0  0
    8.4876    0.6332    0.0000 H   0  0  0  0  0  0  0  0  0  0  0  0
    9.2452    0.3856    0.0000 H   0  0  0  0  0  0  0  0  0  0  0  0
    9.3858   -1.0392    0.0000 H   0  0  0  0  0  0  0  0  0  0  0  0
   14.6114    0.0000    0.0000 H   0  0  0  0  0  0  0  0  0  0  0  0
   12.6229    2.7292    0.0000 H   0  0  0  0  0  0  0  0  0  0  0  0
    9.3437    3.0710    0.0000 H   0  0  0  0  0  0  0  0  0  0  0  0
    8.8725    2.0328    0.0000 H   0  0  0  0  0  0  0  0  0  0  0  0
    8.1149    2.2804    0.0000 H   0  0  0  0  0  0  0  0  0  0  0  0
   12.6229   -2.7292    0.0000 H   0  0  0  0  0  0  0  0  0  0  0  0
    9.3437   -3.0710    0.0000 H   0  0  0  0  0  0  0  0  0  0  0  0
   11.9583    4.2499    0.0000 H   0  0  0  0  0  0  0  0  0  0  0  0
   10.3077    4.4219    0.0000 H   0  0  0  0  0  0  0  0  0  0  0  0
   11.9583   -4.2499    0.0000 H   0  0  0  0  0  0  0  0  0  0  0  0
   10.3077   -4.4219    0.0000 H   0  0  0  0  0  0  0  0  0  0  0  0
    6.8924    2.8326    0.0000 H   0  0  0  0  0  0  0  0  0  0  0  0
    5.0452    3.3239    0.0000 H   0  0  0  0  0  0  0  0  0  0  0  0
    5.6220    0.5867    0.0000 H   0  0  0  0  0  0  0  0  0  0  0  0
    3.4527    3.1832    0.0000 H   0  0  0  0  0  0  0  0  0  0  0  0
    2.6336    2.8704    0.0000 H   0  0  0  0  0  0  0  0  0  0  0  0
    2.9464    2.0513    0.0000 H   0  0  0  0  0  0  0  0  0  0  0  0
    1.5400    0.3717    0.0000 H   0  0  0  0  0  0  0  0  0  0  0  0
    1.5843   -0.5040    0.0000 H   0  0  0  0  0  0  0  0  0  0  0  0
    2.4600   -0.4596    0.0000 H   0  0  0  0  0  0  0  0  0  0  0  0
  1 22  2  0  0  0  0
  2 32  2  0  0  0  0
  3 38  1  0  0  0  0
  3 39  1  0  0  0  0
  4 38  2  0  0  0  0
  5 10  1  0  0  0  0
  5 17  1  0  0  0  0
  5 20  1  0  0  0  0
  6 13  1  0  0  0  0
  6 21  1  0  0  0  0
  6 44  1  0  0  0  0
  7 18  1  0  0  0  0
  7 22  1  0  0  0  0
  7 45  1  0  0  0  0
  8 32  1  0  0  0  0
  8 33  1  0  0  0  0
  8 56  1  0  0  0  0
  9 34  1  0  0  0  0
  9 36  1  0  0  0  0
  9 37  1  0  0  0  0
 10 11  1  0  0  0  0
 10 13  2  0  0  0  0
 11 12  2  0  0  0  0
 11 16  1  0  0  0  0
 12 15  1  0  0  0  0
 12 18  1  0  0  0  0
 13 14  1  0  0  0  0
 14 15  2  0  0  0  0
 14 19  1  0  0  0  0
 15 22  1  0  0  0  0
 16 17  1  0  0  0  0
 16 23  2  0  0  0  0
 17 24  2  0  0  0  0
 18 40  1  0  0  0  0
 18 41  1  0  0  0  0
 19 21  1  0  0  0  0
 19 26  2  0  0  0  0
 20 25  1  0  0  0  0
 20 42  1  0  0  0  0
 20 43  1  0  0  0  0
 21 27  2  0  0  0  0
 23 28  1  0  0  0  0
 23 46  1  0  0  0  0
 24 29  1  0  0  0  0
 24 47  1  0  0  0  0
 25 32  1  0  0  0  0
 25 48  1  0  0  0  0
 25 49  1  0  0  0  0
 26 30  1  0  0  0  0
 26 50  1  0  0  0  0
 27 31  1  0  0  0  0
 27 51  1  0  0  0  0
 28 29  2  0  0  0  0
 28 52  1  0  0  0  0
 29 53  1  0  0  0  0
 30 31  2  0  0  0  0
 30 54  1  0  0  0  0
 31 55  1  0  0  0  0
 33 34  2  0  0  0  0
 33 35  1  0  0  0  0
 34 57  1  0  0  0  0
 35 36  2  0  0  0  0
 35 58  1  0  0  0  0
 36 38  1  0  0  0  0
 37 59  1  0  0  0  0
 37 60  1  0  0  0  0
 37 61  1  0  0  0  0
 39 62  1  0  0  0  0
 39 63  1  0  0  0  0
 39 64  1  0  0  0  0
M  END
> <PUBCHEM_COMPOUND_CID>
44328786

> <PUBCHEM_COMPOUND_CANONICALIZED>
1

> <PUBCHEM_CACTVS_COMPLEXITY>
992

> <PUBCHEM_CACTVS_HBOND_ACCEPTOR>
4

> <PUBCHEM_CACTVS_HBOND_DONOR>
3

> <PUBCHEM_CACTVS_ROTATABLE_BOND>
6

> <PUBCHEM_CACTVS_SUBSKEYS>
AAADceB7uAAAAAAAAAAAAAAAAAAAAWLFiwAwYMAAAAAAAFgB/gAAHgAQAAAADAjBngY+yPPNlACoAzX3XASCgCQ3EiAI2aG4fNgKZvrA9fmVNQhk1gHY6Ye8mcKeyAACQAASACCQAASAACQAQAAAAAAAAA==

> <PUBCHEM_IUPAC_OPENEYE_NAME>
methyl 1-methyl-4-[3-(14-oxo-3,13,23-triazahexacyclo[14.7.0.02,10.04,9.011,15.017,22]tricosa-1,4,6,8,10,15,17,19,21-nonaen-3-yl)propanoylamino]pyrrole-2-carboxylate

> <PUBCHEM_IUPAC_CAS_NAME>
1-methyl-4-[[1-oxo-3-(14-oxo-3,13,23-triazahexacyclo[14.7.0.02,10.04,9.011,15.017,22]tricosa-1,4,6,8,10,15,17,19,21-nonaen-3-yl)propyl]amino]-2-pyrrolecarboxylic acid methyl ester

> <PUBCHEM_IUPAC_NAME_MARKUP>
methyl 1-methyl-4-[3-(14-oxo-3,13,23-triazahexacyclo[14.7.0.0<SUP>2,10</SUP>.0<SUP>4,9</SUP>.0<SUP>11,15</SUP>.0<SUP>17,22</SUP>]tricosa-1,4,6,8,10,15,17,19,21-nonaen-3-yl)propanoylamino]pyrrole-2-carboxylate

> <PUBCHEM_IUPAC_NAME>
methyl 1-methyl-4-[3-(14-oxo-3,13,23-triazahexacyclo[14.7.0.02,10.04,9.011,15.017,22]tricosa-1,4,6,8,10,15,17,19,21-nonaen-3-yl)propanoylamino]pyrrole-2-carboxylate

> <PUBCHEM_IUPAC_SYSTEMATIC_NAME>
methyl 1-methyl-4-[3-(14-oxidanylidene-3,13,23-triazahexacyclo[14.7.0.02,10.04,9.011,15.017,22]tricosa-1,4,6,8,10,15,17,19,21-nonaen-3-yl)propanoylamino]pyrrole-2-carboxylate

> <PUBCHEM_IUPAC_TRADITIONAL_NAME>
4-[3-(14-keto-3,13,23-triazahexacyclo[14.7.0.02,10.04,9.011,15.017,22]tricosa-1,4,6,8,10,15,17,19,21-nonaen-3-yl)propanoylamino]-1-methyl-pyrrole-2-carboxylic acid methyl ester

> <PUBCHEM_IUPAC_INCHI>
InChI=1S/C30H25N5O4/c1-34-15-16(13-22(34)30(38)39-2)32-23(36)11-12-35-21-10-6-4-8-18(21)24-19-14-31-29(37)26(19)25-17-7-3-5-9-20(17)33-27(25)28(24)35/h3-10,13,15,33H,11-12,14H2,1-2H3,(H,31,37)(H,32,36)

> <PUBCHEM_IUPAC_INCHIKEY>
SSSOPKREQHSVLV-UHFFFAOYSA-N

> <PUBCHEM_XLOGP3_AA>
3.3

> <PUBCHEM_EXACT_MASS>
519.19065430

> <PUBCHEM_MOLECULAR_FORMULA>
C30H25N5O4

> <PUBCHEM_MOLECULAR_WEIGHT>
519.5

> <PUBCHEM_SMILES>
CN1C=C(C=C1C(=O)OC)NC(=O)CCN2C3=CC=CC=C3C4=C5CNC(=O)C5=C6C7=CC=CC=C7NC6=C42

> <PUBCHEM_OPENEYE_CAN_SMILES>
CN1C=C(C=C1C(=O)OC)NC(=O)CCN2C3=CC=CC=C3C4=C5CNC(=O)C5=C6C7=CC=CC=C7NC6=C42

> <PUBCHEM_OPENEYE_ISO_SMILES>
CN1C=C(C=C1C(=O)OC)NC(=O)CCN2C3=CC=CC=C3C4=C5CNC(=O)C5=C6C7=CC=CC=C7NC6=C42

> <PUBCHEM_CACTVS_TPSA>
110

> <PUBCHEM_MONOISOTOPIC_WEIGHT>
519.19065430

> <PUBCHEM_TOTAL_CHARGE>
0

> <PUBCHEM_HEAVY_ATOM_COUNT>
39

> <PUBCHEM_ATOM_DEF_STEREO_COUNT>
0

> <PUBCHEM_ATOM_UDEF_STEREO_COUNT>
0

> <PUBCHEM_BOND_DEF_STEREO_COUNT>
0

> <PUBCHEM_BOND_UDEF_STEREO_COUNT>
0

> <PUBCHEM_ISOTOPIC_ATOM_COUNT>
0

> <PUBCHEM_COMPONENT_COUNT>
1

> <PUBCHEM_CACTVS_TAUTO_COUNT>
-1

> <PUBCHEM_COORDINATE_TYPE>
1
5
255

> <PUBCHEM_BONDANNOTATIONS>
10  11  8
10  13  8
11  12  8
11  16  8
12  15  8
13  14  8
14  15  8
14  19  8
16  17  8
16  23  8
17  24  8
19  21  8
19  26  8
21  27  8
23  28  8
24  29  8
26  30  8
27  31  8
28  29  8
30  31  8
33  34  8
33  35  8
35  36  8
5  10  8
5  17  8
6  13  8
6  21  8
9  34  8
9  36  8

$$$$
