49830766
  -OEChem-03202502082D

 29 31  0     0  0  0  0  0  0999 V2000
    4.6783   -2.3047    0.0000 O   0  0  0  0  0  0  0  0  0  0  0  0
    5.2619   -1.5000    0.0000 N   0  0  0  0  0  0  0  0  0  0  0  0
    4.9889    0.2553    0.0000 N   0  0  0  0  0  0  0  0  0  0  0  0
    2.8660   -0.5000    0.0000 C   0  0  0  0  0  0  0  0  0  0  0  0
    3.7320   -1.0000    0.0000 C   0  0  0  0  0  0  0  0  0  0  0  0
    2.8660    0.5000    0.0000 C   0  0  0  0  0  0  0  0  0  0  0  0
    3.7320   -2.0000    0.0000 C   0  0  0  0  0  0  0  0  0  0  0  0
    2.0000   -1.0000    0.0000 C   0  0  0  0  0  0  0  0  0  0  0  0
    3.7320    1.0000    0.0000 C   0  0  0  0  0  0  0  0  0  0  0  0
    4.6783   -0.6953    0.0000 C   0  0  0  0  0  0  0  0  0  0  0  0
    3.7320    2.0000    0.0000 C   0  0  0  0  0  0  0  0  0  0  0  0
    2.0000    1.0000    0.0000 C   0  0  0  0  0  0  0  0  0  0  0  0
    2.8660   -2.5000    0.0000 C   0  0  0  0  0  0  0  0  0  0  0  0
    2.0000   -2.0000    0.0000 C   0  0  0  0  0  0  0  0  0  0  0  0
    2.8660    2.5000    0.0000 C   0  0  0  0  0  0  0  0  0  0  0  0
    2.0000    2.0000    0.0000 C   0  0  0  0  0  0  0  0  0  0  0  0
    4.5981    2.5000    0.0000 C   0  0  0  0  0  0  0  0  0  0  0  0
    1.4631   -0.6900    0.0000 H   0  0  0  0  0  0  0  0  0  0  0  0
    4.2690    0.6900    0.0000 H   0  0  0  0  0  0  0  0  0  0  0  0
    1.4631    0.6900    0.0000 H   0  0  0  0  0  0  0  0  0  0  0  0
    2.8660   -3.1200    0.0000 H   0  0  0  0  0  0  0  0  0  0  0  0
    1.4631   -2.3100    0.0000 H   0  0  0  0  0  0  0  0  0  0  0  0
    2.8660    3.1200    0.0000 H   0  0  0  0  0  0  0  0  0  0  0  0
    1.4631    2.3100    0.0000 H   0  0  0  0  0  0  0  0  0  0  0  0
    4.9081    1.9631    0.0000 H   0  0  0  0  0  0  0  0  0  0  0  0
    5.1350    2.8100    0.0000 H   0  0  0  0  0  0  0  0  0  0  0  0
    4.2881    3.0369    0.0000 H   0  0  0  0  0  0  0  0  0  0  0  0
    5.5956    0.3831    0.0000 H   0  0  0  0  0  0  0  0  0  0  0  0
    4.5749    0.7167    0.0000 H   0  0  0  0  0  0  0  0  0  0  0  0
  1  2  1  0  0  0  0
  1  7  1  0  0  0  0
  2 10  2  0  0  0  0
  3 10  1  0  0  0  0
  3 28  1  0  0  0  0
  3 29  1  0  0  0  0
  4  5  2  0  0  0  0
  4  6  1  0  0  0  0
  4  8  1  0  0  0  0
  5  7  1  0  0  0  0
  5 10  1  0  0  0  0
  6  9  1  0  0  0  0
  6 12  2  0  0  0  0
  7 13  2  0  0  0  0
  8 14  2  0  0  0  0
  8 18  1  0  0  0  0
  9 11  2  0  0  0  0
  9 19  1  0  0  0  0
 11 15  1  0  0  0  0
 11 17  1  0  0  0  0
 12 16  1  0  0  0  0
 12 20  1  0  0  0  0
 13 14  1  0  0  0  0
 13 21  1  0  0  0  0
 14 22  1  0  0  0  0
 15 16  2  0  0  0  0
 15 23  1  0  0  0  0
 16 24  1  0  0  0  0
 17 25  1  0  0  0  0
 17 26  1  0  0  0  0
 17 27  1  0  0  0  0
M  END
> <PUBCHEM_COMPOUND_CID>
49830766

> <PUBCHEM_COMPOUND_CANONICALIZED>
1

> <PUBCHEM_CACTVS_COMPLEXITY>
271

> <PUBCHEM_CACTVS_HBOND_ACCEPTOR>
3

> <PUBCHEM_CACTVS_HBOND_DONOR>
1

> <PUBCHEM_CACTVS_ROTATABLE_BOND>
1

> <PUBCHEM_CACTVS_SUBSKEYS>
AAADccBzIAAAAAAAAAAAAAAAAAAAAWAAAAAwYAAAAAAAAFgB9AAAHgAUAAAADASBmgAzttBQAACpAqJyYgCCAAAkIAAomCEmTNoIJjqAlZOAMYBmwBkIyceYyPCOgAADAAAYAAAAAAYAADAAAAAAAAAAAA==

> <PUBCHEM_IUPAC_OPENEYE_NAME>
4-(m-tolyl)-1,2-benzoxazol-3-amine

> <PUBCHEM_IUPAC_CAS_NAME>
4-(3-methylphenyl)-1,2-benzoxazol-3-amine

> <PUBCHEM_IUPAC_NAME_MARKUP>
4-(3-methylphenyl)-1,2-benzoxazol-3-amine

> <PUBCHEM_IUPAC_NAME>
4-(3-methylphenyl)-1,2-benzoxazol-3-amine

> <PUBCHEM_IUPAC_SYSTEMATIC_NAME>
4-(3-methylphenyl)-1,2-benzoxazol-3-amine

> <PUBCHEM_IUPAC_TRADITIONAL_NAME>
[4-(m-tolyl)indoxazen-3-yl]amine

> <PUBCHEM_IUPAC_INCHI>
InChI=1S/C14H12N2O/c1-9-4-2-5-10(8-9)11-6-3-7-12-13(11)14(15)16-17-12/h2-8H,1H3,(H2,15,16)

> <PUBCHEM_IUPAC_INCHIKEY>
ZBQOHMKSDBXJBL-UHFFFAOYSA-N

> <PUBCHEM_XLOGP3_AA>
3.3

> <PUBCHEM_EXACT_MASS>
224.094963011

> <PUBCHEM_MOLECULAR_FORMULA>
C14H12N2O

> <PUBCHEM_MOLECULAR_WEIGHT>
224.26

> <PUBCHEM_SMILES>
CC1=CC(=CC=C1)C2=C3C(=CC=C2)ON=C3N

> <PUBCHEM_OPENEYE_CAN_SMILES>
CC1=CC(=CC=C1)C2=C3C(=CC=C2)ON=C3N

> <PUBCHEM_OPENEYE_ISO_SMILES>
CC1=CC(=CC=C1)C2=C3C(=CC=C2)ON=C3N

> <PUBCHEM_CACTVS_TPSA>
52.1

> <PUBCHEM_MONOISOTOPIC_WEIGHT>
224.094963011

> <PUBCHEM_TOTAL_CHARGE>
0

> <PUBCHEM_HEAVY_ATOM_COUNT>
17

> <PUBCHEM_ATOM_DEF_STEREO_COUNT>
0

> <PUBCHEM_ATOM_UDEF_STEREO_COUNT>
0

> <PUBCHEM_BOND_DEF_STEREO_COUNT>
0

> <PUBCHEM_BOND_UDEF_STEREO_COUNT>
0

> <PUBCHEM_ISOTOPIC_ATOM_COUNT>
0

> <PUBCHEM_COMPONENT_COUNT>
1

> <PUBCHEM_CACTVS_TAUTO_COUNT>
-1

> <PUBCHEM_COORDINATE_TYPE>
1
5
255

> <PUBCHEM_BONDANNOTATIONS>
1  2  8
1  7  8
11  15  8
12  16  8
13  14  8
15  16  8
2  10  8
4  5  8
4  8  8
5  10  8
5  7  8
6  12  8
6  9  8
7  13  8
8  14  8
9  11  8

$$$$
