60155724
  -OEChem-03202504472D

 47 49  0     0  0  0  0  0  0999 V2000
    8.9282   -1.8100    0.0000 Cl  0  0  0  0  0  0  0  0  0  0  0  0
    8.9282    0.1900    0.0000 S   0  0  0  0  0  0  0  0  0  0  0  0
   11.5263   -2.3100    0.0000 F   0  0  0  0  0  0  0  0  0  0  0  0
    8.4282    1.0560    0.0000 O   0  0  0  0  0  0  0  0  0  0  0  0
    9.4282   -0.6760    0.0000 O   0  0  0  0  0  0  0  0  0  0  0  0
    2.0000    0.1900    0.0000 O   0  0  0  0  0  0  0  0  0  0  0  0
    9.7942    0.6900    0.0000 N   0  0  0  0  0  0  0  0  0  0  0  0
    4.5981   -0.3100    0.0000 N   0  0  0  0  0  0  0  0  0  0  0  0
    4.5981    1.6900    0.0000 N   0  0  0  0  0  0  0  0  0  0  0  0
    2.8660    1.6900    0.0000 N   0  0  0  0  0  0  0  0  0  0  0  0
    2.8660   -1.3100    0.0000 N   0  0  0  0  0  0  0  0  0  0  0  0
    8.0622   -0.3100    0.0000 C   0  0  0  0  0  0  0  0  0  0  0  0
    6.3301   -0.3100    0.0000 C   0  0  0  0  0  0  0  0  0  0  0  0
   10.6603    0.1900    0.0000 C   0  0  0  0  0  0  0  0  0  0  0  0
    7.1962    0.1900    0.0000 C   0  0  0  0  0  0  0  0  0  0  0  0
    8.0622   -1.3100    0.0000 C   0  0  0  0  0  0  0  0  0  0  0  0
   10.6603   -0.8100    0.0000 C   0  0  0  0  0  0  0  0  0  0  0  0
    6.3301   -1.3100    0.0000 C   0  0  0  0  0  0  0  0  0  0  0  0
    5.4641    0.1900    0.0000 C   0  0  0  0  0  0  0  0  0  0  0  0
    7.1962   -1.8100    0.0000 C   0  0  0  0  0  0  0  0  0  0  0  0
   11.5263    0.6900    0.0000 C   0  0  0  0  0  0  0  0  0  0  0  0
   11.5263   -1.3100    0.0000 C   0  0  0  0  0  0  0  0  0  0  0  0
    9.7942   -1.3100    0.0000 C   0  0  0  0  0  0  0  0  0  0  0  0
   12.3923    0.1900    0.0000 C   0  0  0  0  0  0  0  0  0  0  0  0
   12.3923   -0.8100    0.0000 C   0  0  0  0  0  0  0  0  0  0  0  0
    5.4641    1.1900    0.0000 C   0  0  0  0  0  0  0  0  0  0  0  0
    3.7320    0.1900    0.0000 C   0  0  0  0  0  0  0  0  0  0  0  0
    3.7320    1.1900    0.0000 C   0  0  0  0  0  0  0  0  0  0  0  0
    2.8660   -0.3100    0.0000 C   0  0  0  0  0  0  0  0  0  0  0  0
    2.0000   -1.8100    0.0000 C   0  0  0  0  0  0  0  0  0  0  0  0
    9.7942    1.3100    0.0000 H   0  0  0  0  0  0  0  0  0  0  0  0
    7.1962    0.8100    0.0000 H   0  0  0  0  0  0  0  0  0  0  0  0
    5.7932   -1.6200    0.0000 H   0  0  0  0  0  0  0  0  0  0  0  0
    7.1962   -2.4300    0.0000 H   0  0  0  0  0  0  0  0  0  0  0  0
   11.5263    1.3100    0.0000 H   0  0  0  0  0  0  0  0  0  0  0  0
    9.4842   -0.7731    0.0000 H   0  0  0  0  0  0  0  0  0  0  0  0
    9.2573   -1.6200    0.0000 H   0  0  0  0  0  0  0  0  0  0  0  0
   10.1042   -1.8469    0.0000 H   0  0  0  0  0  0  0  0  0  0  0  0
   12.9292    0.5000    0.0000 H   0  0  0  0  0  0  0  0  0  0  0  0
   12.9292   -1.1200    0.0000 H   0  0  0  0  0  0  0  0  0  0  0  0
    6.0010    1.5000    0.0000 H   0  0  0  0  0  0  0  0  0  0  0  0
    2.8660    2.3100    0.0000 H   0  0  0  0  0  0  0  0  0  0  0  0
    2.3291    1.3800    0.0000 H   0  0  0  0  0  0  0  0  0  0  0  0
    3.4030   -1.6200    0.0000 H   0  0  0  0  0  0  0  0  0  0  0  0
    1.6900   -1.2731    0.0000 H   0  0  0  0  0  0  0  0  0  0  0  0
    1.4631   -2.1200    0.0000 H   0  0  0  0  0  0  0  0  0  0  0  0
    2.3100   -2.3469    0.0000 H   0  0  0  0  0  0  0  0  0  0  0  0
  1 16  1  0  0  0  0
  2  4  2  0  0  0  0
  2  5  2  0  0  0  0
  2  7  1  0  0  0  0
  2 12  1  0  0  0  0
  3 22  1  0  0  0  0
  6 29  2  0  0  0  0
  7 14  1  0  0  0  0
  7 31  1  0  0  0  0
  8 19  1  0  0  0  0
  8 27  2  0  0  0  0
  9 26  1  0  0  0  0
  9 28  2  0  0  0  0
 10 28  1  0  0  0  0
 10 42  1  0  0  0  0
 10 43  1  0  0  0  0
 11 29  1  0  0  0  0
 11 30  1  0  0  0  0
 11 44  1  0  0  0  0
 12 15  1  0  0  0  0
 12 16  2  0  0  0  0
 13 15  2  0  0  0  0
 13 18  1  0  0  0  0
 13 19  1  0  0  0  0
 14 17  2  0  0  0  0
 14 21  1  0  0  0  0
 15 32  1  0  0  0  0
 16 20  1  0  0  0  0
 17 22  1  0  0  0  0
 17 23  1  0  0  0  0
 18 20  2  0  0  0  0
 18 33  1  0  0  0  0
 19 26  2  0  0  0  0
 20 34  1  0  0  0  0
 21 24  2  0  0  0  0
 21 35  1  0  0  0  0
 22 25  2  0  0  0  0
 23 36  1  0  0  0  0
 23 37  1  0  0  0  0
 23 38  1  0  0  0  0
 24 25  1  0  0  0  0
 24 39  1  0  0  0  0
 25 40  1  0  0  0  0
 26 41  1  0  0  0  0
 27 28  1  0  0  0  0
 27 29  1  0  0  0  0
 30 45  1  0  0  0  0
 30 46  1  0  0  0  0
 30 47  1  0  0  0  0
M  END
> <PUBCHEM_COMPOUND_CID>
60155724

> <PUBCHEM_COMPOUND_CANONICALIZED>
1

> <PUBCHEM_CACTVS_COMPLEXITY>
709

> <PUBCHEM_CACTVS_HBOND_ACCEPTOR>
8

> <PUBCHEM_CACTVS_HBOND_DONOR>
3

> <PUBCHEM_CACTVS_ROTATABLE_BOND>
5

> <PUBCHEM_CACTVS_SUBSKEYS>
AAADceB7sQBEAAAAAAAAAAAAAAAAAAAAAAA8YIAAAAAAAAAB0AAAHwYQQAAADArB3iw/8ZLIEAKoAzd3dHDCgD03FyAI2Lm4dtiIYOrB07GUIIhgkgLIyGcQgIAOBAAAgAACAIAIAAEAAAQBAAAAAAAAAA==

> <PUBCHEM_IUPAC_OPENEYE_NAME>
3-amino-6-[4-chloro-3-[(3-fluoro-2-methyl-phenyl)sulfamoyl]phenyl]-N-methyl-pyrazine-2-carboxamide

> <PUBCHEM_IUPAC_CAS_NAME>
3-amino-6-[4-chloro-3-[(3-fluoro-2-methylphenyl)sulfamoyl]phenyl]-N-methyl-2-pyrazinecarboxamide

> <PUBCHEM_IUPAC_NAME_MARKUP>
3-amino-6-[4-chloro-3-[(3-fluoro-2-methylphenyl)sulfamoyl]phenyl]-<I>N</I>-methylpyrazine-2-carboxamide

> <PUBCHEM_IUPAC_NAME>
3-amino-6-[4-chloro-3-[(3-fluoro-2-methylphenyl)sulfamoyl]phenyl]-N-methylpyrazine-2-carboxamide

> <PUBCHEM_IUPAC_SYSTEMATIC_NAME>
3-azanyl-6-[4-chloranyl-3-[(3-fluoranyl-2-methyl-phenyl)sulfamoyl]phenyl]-N-methyl-pyrazine-2-carboxamide

> <PUBCHEM_IUPAC_TRADITIONAL_NAME>
3-amino-6-[4-chloro-3-[(3-fluoro-2-methyl-phenyl)sulfamoyl]phenyl]-N-methyl-pyrazinamide

> <PUBCHEM_IUPAC_INCHI>
InChI=1S/C19H17ClFN5O3S/c1-10-13(21)4-3-5-14(10)26-30(28,29)16-8-11(6-7-12(16)20)15-9-24-18(22)17(25-15)19(27)23-2/h3-9,26H,1-2H3,(H2,22,24)(H,23,27)

> <PUBCHEM_IUPAC_INCHIKEY>
LFOKRWIYRIYGNF-UHFFFAOYSA-N

> <PUBCHEM_XLOGP3_AA>
2.9

> <PUBCHEM_EXACT_MASS>
449.0724665

> <PUBCHEM_MOLECULAR_FORMULA>
C19H17ClFN5O3S

> <PUBCHEM_MOLECULAR_WEIGHT>
449.9

> <PUBCHEM_SMILES>
CC1=C(C=CC=C1F)NS(=O)(=O)C2=C(C=CC(=C2)C3=CN=C(C(=N3)C(=O)NC)N)Cl

> <PUBCHEM_OPENEYE_CAN_SMILES>
CC1=C(C=CC=C1F)NS(=O)(=O)C2=C(C=CC(=C2)C3=CN=C(C(=N3)C(=O)NC)N)Cl

> <PUBCHEM_OPENEYE_ISO_SMILES>
CC1=C(C=CC=C1F)NS(=O)(=O)C2=C(C=CC(=C2)C3=CN=C(C(=N3)C(=O)NC)N)Cl

> <PUBCHEM_CACTVS_TPSA>
135

> <PUBCHEM_MONOISOTOPIC_WEIGHT>
449.0724665

> <PUBCHEM_TOTAL_CHARGE>
0

> <PUBCHEM_HEAVY_ATOM_COUNT>
30

> <PUBCHEM_ATOM_DEF_STEREO_COUNT>
0

> <PUBCHEM_ATOM_UDEF_STEREO_COUNT>
0

> <PUBCHEM_BOND_DEF_STEREO_COUNT>
0

> <PUBCHEM_BOND_UDEF_STEREO_COUNT>
0

> <PUBCHEM_ISOTOPIC_ATOM_COUNT>
0

> <PUBCHEM_COMPONENT_COUNT>
1

> <PUBCHEM_CACTVS_TAUTO_COUNT>
-1

> <PUBCHEM_COORDINATE_TYPE>
1
5
255

> <PUBCHEM_BONDANNOTATIONS>
12  15  8
12  16  8
13  15  8
13  18  8
14  17  8
14  21  8
16  20  8
17  22  8
18  20  8
19  26  8
21  24  8
22  25  8
24  25  8
27  28  8
8  19  8
8  27  8
9  26  8
9  28  8

$$$$
