3270866
  -OEChem-03202503002D

 39 42  0     1  0  0  0  0  0999 V2000
    7.1270   -0.3997    0.0000 S   0  0  0  0  0  0  0  0  0  0  0  0
    3.4782   -1.5895    0.0000 O   0  0  0  0  0  0  0  0  0  0  0  0
    7.4376    2.1602    0.0000 O   0  0  0  0  0  0  0  0  0  0  0  0
    4.4487   -2.0950    0.0000 O   0  0  0  0  0  0  0  0  0  0  0  0
    8.8038   -1.3746    0.0000 O   0  0  0  0  0  0  0  0  0  0  0  0
    6.1808    0.9050    0.0000 N   0  0  0  0  0  0  0  0  0  0  0  0
    5.3147    2.4050    0.0000 N   0  0  0  0  0  0  0  0  0  0  0  0
    6.1808   -2.0950    0.0000 N   0  0  0  0  0  0  0  0  0  0  0  0
    2.7166    1.9050    0.0000 N   0  0  0  0  0  0  0  0  0  0  0  0
    4.4487   -0.0950    0.0000 C   0  0  3  0  0  0  0  0  0  0  0  0
    5.3147   -0.5950    0.0000 C   0  0  0  0  0  0  0  0  0  0  0  0
    6.1808   -0.0950    0.0000 C   0  0  0  0  0  0  0  0  0  0  0  0
    4.4487    0.9050    0.0000 C   0  0  0  0  0  0  0  0  0  0  0  0
    5.3147    1.4050    0.0000 C   0  0  0  0  0  0  0  0  0  0  0  0
    3.5827   -0.5950    0.0000 C   0  0  0  0  0  0  0  0  0  0  0  0
    7.1270    1.2097    0.0000 C   0  0  0  0  0  0  0  0  0  0  0  0
    7.7106    0.4050    0.0000 C   0  0  0  0  0  0  0  0  0  0  0  0
    5.3147   -1.5950    0.0000 C   0  0  0  0  0  0  0  0  0  0  0  0
    2.6691   -0.1883    0.0000 C   0  0  0  0  0  0  0  0  0  0  0  0
    8.7106    0.4050    0.0000 C   0  0  0  0  0  0  0  0  0  0  0  0
    3.5827    1.4050    0.0000 C   0  0  0  0  0  0  0  0  0  0  0  0
    2.0000   -0.9314    0.0000 C   0  0  0  0  0  0  0  0  0  0  0  0
    2.5000   -1.7974    0.0000 C   0  0  0  0  0  0  0  0  0  0  0  0
    9.2106   -0.4610    0.0000 C   0  0  0  0  0  0  0  0  0  0  0  0
   10.2051   -0.5656    0.0000 C   0  0  0  0  0  0  0  0  0  0  0  0
   10.4130   -1.5437    0.0000 C   0  0  0  0  0  0  0  0  0  0  0  0
    9.5470   -2.0437    0.0000 C   0  0  0  0  0  0  0  0  0  0  0  0
    3.9118    0.2150    0.0000 H   0  0  0  0  0  0  0  0  0  0  0  0
    2.5402    0.4182    0.0000 H   0  0  0  0  0  0  0  0  0  0  0  0
    4.7778    2.7150    0.0000 H   0  0  0  0  0  0  0  0  0  0  0  0
    5.8517    2.7150    0.0000 H   0  0  0  0  0  0  0  0  0  0  0  0
    9.0206    0.9419    0.0000 H   0  0  0  0  0  0  0  0  0  0  0  0
    1.3834   -0.8666    0.0000 H   0  0  0  0  0  0  0  0  0  0  0  0
    2.2478   -2.3638    0.0000 H   0  0  0  0  0  0  0  0  0  0  0  0
    6.1808   -2.7150    0.0000 H   0  0  0  0  0  0  0  0  0  0  0  0
    6.7177   -1.7850    0.0000 H   0  0  0  0  0  0  0  0  0  0  0  0
   10.6200   -0.1048    0.0000 H   0  0  0  0  0  0  0  0  0  0  0  0
   10.9794   -1.7959    0.0000 H   0  0  0  0  0  0  0  0  0  0  0  0
    9.4822   -2.6603    0.0000 H   0  0  0  0  0  0  0  0  0  0  0  0
  1 12  1  0  0  0  0
  1 17  1  0  0  0  0
  2 15  1  0  0  0  0
  2 23  1  0  0  0  0
  3 16  2  0  0  0  0
  4 18  2  0  0  0  0
  5 24  1  0  0  0  0
  5 27  1  0  0  0  0
  6 12  1  0  0  0  0
  6 14  1  0  0  0  0
  6 16  1  0  0  0  0
  7 14  1  0  0  0  0
  7 30  1  0  0  0  0
  7 31  1  0  0  0  0
  8 18  1  0  0  0  0
  8 35  1  0  0  0  0
  8 36  1  0  0  0  0
  9 21  3  0  0  0  0
 10 11  1  0  0  0  0
 10 13  1  0  0  0  0
 10 15  1  0  0  0  0
 10 28  1  0  0  0  0
 11 12  2  0  0  0  0
 11 18  1  0  0  0  0
 13 14  2  0  0  0  0
 13 21  1  0  0  0  0
 15 19  2  0  0  0  0
 16 17  1  0  0  0  0
 17 20  2  3  0  0  0
 19 22  1  0  0  0  0
 19 29  1  0  0  0  0
 20 24  1  0  0  0  0
 20 32  1  0  0  0  0
 22 23  2  0  0  0  0
 22 33  1  0  0  0  0
 23 34  1  0  0  0  0
 24 25  2  0  0  0  0
 25 26  1  0  0  0  0
 25 37  1  0  0  0  0
 26 27  2  0  0  0  0
 26 38  1  0  0  0  0
 27 39  1  0  0  0  0
M  END
> <PUBCHEM_COMPOUND_CID>
3270866

> <PUBCHEM_COMPOUND_CANONICALIZED>
1

> <PUBCHEM_CACTVS_COMPLEXITY>
853

> <PUBCHEM_CACTVS_HBOND_ACCEPTOR>
7

> <PUBCHEM_CACTVS_HBOND_DONOR>
2

> <PUBCHEM_CACTVS_ROTATABLE_BOND>
3

> <PUBCHEM_CACTVS_SUBSKEYS>
AAADccB7uABAAAAAAAAAAAAAAAAAAWJEgAAgAAAAAAAAAEAB4AAAHgQQAAAADQSh0AIxBINABEiYBqlS0ACiCABkIBAIiAEGCMiMpjKEtRqCGSCkwRMIqc+/yDCOAAAAAAAAAAAAAAAAAAAAAAAAAAAAAA==

> <PUBCHEM_IUPAC_OPENEYE_NAME>
5-amino-6-cyano-7-(2-furyl)-2-(2-furylmethylene)-3-oxo-7H-thiazolo[3,2-a]pyridine-8-carboxamide

> <PUBCHEM_IUPAC_CAS_NAME>
5-amino-6-cyano-7-(2-furanyl)-2-(2-furanylmethylidene)-3-oxo-7H-thiazolo[3,2-a]pyridine-8-carboxamide

> <PUBCHEM_IUPAC_NAME_MARKUP>
5-amino-6-cyano-7-(furan-2-yl)-2-(furan-2-ylmethylidene)-3-oxo-7<I>H</I>-[1,3]thiazolo[3,2-a]pyridine-8-carboxamide

> <PUBCHEM_IUPAC_NAME>
5-amino-6-cyano-7-(furan-2-yl)-2-(furan-2-ylmethylidene)-3-oxo-7H-[1,3]thiazolo[3,2-a]pyridine-8-carboxamide

> <PUBCHEM_IUPAC_SYSTEMATIC_NAME>
5-azanyl-6-cyano-7-(furan-2-yl)-2-(furan-2-ylmethylidene)-3-oxidanylidene-7H-[1,3]thiazolo[3,2-a]pyridine-8-carboxamide

> <PUBCHEM_IUPAC_TRADITIONAL_NAME>
5-amino-6-cyano-2-(2-furfurylidene)-7-(2-furyl)-3-keto-7H-thiazolo[3,2-a]pyridine-8-carboxamide

> <PUBCHEM_IUPAC_INCHI>
InChI=1S/C18H12N4O4S/c19-8-10-13(11-4-2-6-26-11)14(16(21)23)18-22(15(10)20)17(24)12(27-18)7-9-3-1-5-25-9/h1-7,13H,20H2,(H2,21,23)

> <PUBCHEM_IUPAC_INCHIKEY>
XIOOJUQFJYPVLA-UHFFFAOYSA-N

> <PUBCHEM_XLOGP3_AA>
1

> <PUBCHEM_EXACT_MASS>
380.05792605

> <PUBCHEM_MOLECULAR_FORMULA>
C18H12N4O4S

> <PUBCHEM_MOLECULAR_WEIGHT>
380.4

> <PUBCHEM_SMILES>
C1=COC(=C1)C=C2C(=O)N3C(=C(C(C(=C3S2)C(=O)N)C4=CC=CO4)C#N)N

> <PUBCHEM_OPENEYE_CAN_SMILES>
C1=COC(=C1)C=C2C(=O)N3C(=C(C(C(=C3S2)C(=O)N)C4=CC=CO4)C#N)N

> <PUBCHEM_OPENEYE_ISO_SMILES>
C1=COC(=C1)C=C2C(=O)N3C(=C(C(C(=C3S2)C(=O)N)C4=CC=CO4)C#N)N

> <PUBCHEM_CACTVS_TPSA>
165

> <PUBCHEM_MONOISOTOPIC_WEIGHT>
380.05792605

> <PUBCHEM_TOTAL_CHARGE>
0

> <PUBCHEM_HEAVY_ATOM_COUNT>
27

> <PUBCHEM_ATOM_DEF_STEREO_COUNT>
0

> <PUBCHEM_ATOM_UDEF_STEREO_COUNT>
1

> <PUBCHEM_BOND_DEF_STEREO_COUNT>
0

> <PUBCHEM_BOND_UDEF_STEREO_COUNT>
1

> <PUBCHEM_ISOTOPIC_ATOM_COUNT>
0

> <PUBCHEM_COMPONENT_COUNT>
1

> <PUBCHEM_CACTVS_TAUTO_COUNT>
-1

> <PUBCHEM_COORDINATE_TYPE>
1
5
255

> <PUBCHEM_BONDANNOTATIONS>
1  12  8
1  17  8
10  15  3
15  19  8
16  17  8
17  20  1
19  22  8
2  15  8
2  23  8
22  23  8
24  25  8
25  26  8
26  27  8
5  24  8
5  27  8
6  12  8
6  16  8

$$$$
