49830436
  -OEChem-03202501052D

 36 38  0     0  0  0  0  0  0999 V2000
    5.1350   -0.2500    0.0000 O   0  0  0  0  0  0  0  0  0  0  0  0
   11.8610   -0.7500    0.0000 N   0  0  0  0  0  0  0  0  0  0  0  0
   11.2774   -1.5547    0.0000 N   0  0  0  0  0  0  0  0  0  0  0  0
    6.8671    1.7500    0.0000 N   0  0  0  0  0  0  0  0  0  0  0  0
    2.5369    0.2500    0.0000 N   0  0  0  0  0  0  0  0  0  0  0  0
   10.3312   -0.2500    0.0000 C   0  0  0  0  0  0  0  0  0  0  0  0
    8.5991   -0.2500    0.0000 C   0  0  0  0  0  0  0  0  0  0  0  0
   10.3312   -1.2500    0.0000 C   0  0  0  0  0  0  0  0  0  0  0  0
    9.4651    0.2500    0.0000 C   0  0  0  0  0  0  0  0  0  0  0  0
   11.2774    0.0547    0.0000 C   0  0  0  0  0  0  0  0  0  0  0  0
    7.7331    0.2500    0.0000 C   0  0  0  0  0  0  0  0  0  0  0  0
    8.5991   -1.2500    0.0000 C   0  0  0  0  0  0  0  0  0  0  0  0
    9.4651   -1.7500    0.0000 C   0  0  0  0  0  0  0  0  0  0  0  0
    6.8671   -0.2500    0.0000 C   0  0  0  0  0  0  0  0  0  0  0  0
   11.5880    1.0052    0.0000 C   0  0  0  0  0  0  0  0  0  0  0  0
    6.0010    0.2500    0.0000 C   0  0  0  0  0  0  0  0  0  0  0  0
    7.7331    1.2500    0.0000 C   0  0  0  0  0  0  0  0  0  0  0  0
    4.2690    0.2500    0.0000 C   0  0  0  0  0  0  0  0  0  0  0  0
    6.0010    1.2500    0.0000 C   0  0  0  0  0  0  0  0  0  0  0  0
    3.4030   -0.2500    0.0000 C   0  0  0  0  0  0  0  0  0  0  0  0
    9.4651    0.8700    0.0000 H   0  0  0  0  0  0  0  0  0  0  0  0
    8.0622   -1.5600    0.0000 H   0  0  0  0  0  0  0  0  0  0  0  0
    9.4651   -2.3700    0.0000 H   0  0  0  0  0  0  0  0  0  0  0  0
   12.4810   -0.7500    0.0000 H   0  0  0  0  0  0  0  0  0  0  0  0
    6.8671   -0.8700    0.0000 H   0  0  0  0  0  0  0  0  0  0  0  0
   12.1774    0.8126    0.0000 H   0  0  0  0  0  0  0  0  0  0  0  0
   11.7807    1.5946    0.0000 H   0  0  0  0  0  0  0  0  0  0  0  0
   10.9987    1.1979    0.0000 H   0  0  0  0  0  0  0  0  0  0  0  0
    8.2700    1.5600    0.0000 H   0  0  0  0  0  0  0  0  0  0  0  0
    4.6675    0.7249    0.0000 H   0  0  0  0  0  0  0  0  0  0  0  0
    3.8705    0.7249    0.0000 H   0  0  0  0  0  0  0  0  0  0  0  0
    5.4641    1.5600    0.0000 H   0  0  0  0  0  0  0  0  0  0  0  0
    3.0044   -0.7249    0.0000 H   0  0  0  0  0  0  0  0  0  0  0  0
    3.8015   -0.7249    0.0000 H   0  0  0  0  0  0  0  0  0  0  0  0
    2.0000   -0.0600    0.0000 H   0  0  0  0  0  0  0  0  0  0  0  0
    2.5369    0.8700    0.0000 H   0  0  0  0  0  0  0  0  0  0  0  0
  1 16  1  0  0  0  0
  1 18  1  0  0  0  0
  2  3  1  0  0  0  0
  2 10  1  0  0  0  0
  2 24  1  0  0  0  0
  3  8  2  0  0  0  0
  4 17  2  0  0  0  0
  4 19  1  0  0  0  0
  5 20  1  0  0  0  0
  5 35  1  0  0  0  0
  5 36  1  0  0  0  0
  6  8  1  0  0  0  0
  6  9  1  0  0  0  0
  6 10  2  0  0  0  0
  7  9  2  0  0  0  0
  7 11  1  0  0  0  0
  7 12  1  0  0  0  0
  8 13  1  0  0  0  0
  9 21  1  0  0  0  0
 10 15  1  0  0  0  0
 11 14  2  0  0  0  0
 11 17  1  0  0  0  0
 12 13  2  0  0  0  0
 12 22  1  0  0  0  0
 13 23  1  0  0  0  0
 14 16  1  0  0  0  0
 14 25  1  0  0  0  0
 15 26  1  0  0  0  0
 15 27  1  0  0  0  0
 15 28  1  0  0  0  0
 16 19  2  0  0  0  0
 17 29  1  0  0  0  0
 18 20  1  0  0  0  0
 18 30  1  0  0  0  0
 18 31  1  0  0  0  0
 19 32  1  0  0  0  0
 20 33  1  0  0  0  0
 20 34  1  0  0  0  0
M  END
> <PUBCHEM_COMPOUND_CID>
49830436

> <PUBCHEM_COMPOUND_CANONICALIZED>
1

> <PUBCHEM_CACTVS_COMPLEXITY>
314

> <PUBCHEM_CACTVS_HBOND_ACCEPTOR>
4

> <PUBCHEM_CACTVS_HBOND_DONOR>
2

> <PUBCHEM_CACTVS_ROTATABLE_BOND>
4

> <PUBCHEM_CACTVS_SUBSKEYS>
AAADceBzoAAAAAAAAAAAAAAAAAAAAWAAAAA8QAAAAAAAAFgB/AAAHgAYAAAADAzhngY+xvJrFACiAzRnRASSjCAxYiAY+aA/bJgOJuLE8duHvCjk2BHY6AewwOAOiAACAAACAAAQAAQAAAQAAAAAAAAAAA==

> <PUBCHEM_IUPAC_OPENEYE_NAME>
2-[[5-(3-methyl-2H-indazol-5-yl)-3-pyridyl]oxy]ethanamine

> <PUBCHEM_IUPAC_CAS_NAME>
2-[[5-(3-methyl-2H-indazol-5-yl)-3-pyridinyl]oxy]ethanamine

> <PUBCHEM_IUPAC_NAME_MARKUP>
2-[5-(3-methyl-2<I>H</I>-indazol-5-yl)pyridin-3-yl]oxyethanamine

> <PUBCHEM_IUPAC_NAME>
2-[5-(3-methyl-2H-indazol-5-yl)pyridin-3-yl]oxyethanamine

> <PUBCHEM_IUPAC_SYSTEMATIC_NAME>
2-[5-(3-methyl-2H-indazol-5-yl)pyridin-3-yl]oxyethanamine

> <PUBCHEM_IUPAC_TRADITIONAL_NAME>
2-[[5-(3-methyl-2H-indazol-5-yl)-3-pyridyl]oxy]ethylamine

> <PUBCHEM_IUPAC_INCHI>
InChI=1S/C15H16N4O/c1-10-14-7-11(2-3-15(14)19-18-10)12-6-13(9-17-8-12)20-5-4-16/h2-3,6-9H,4-5,16H2,1H3,(H,18,19)

> <PUBCHEM_IUPAC_INCHIKEY>
ZYTFPHRVOZXPGZ-UHFFFAOYSA-N

> <PUBCHEM_XLOGP3_AA>
1.5

> <PUBCHEM_EXACT_MASS>
268.13241115

> <PUBCHEM_MOLECULAR_FORMULA>
C15H16N4O

> <PUBCHEM_MOLECULAR_WEIGHT>
268.31

> <PUBCHEM_SMILES>
CC1=C2C=C(C=CC2=NN1)C3=CC(=CN=C3)OCCN

> <PUBCHEM_OPENEYE_CAN_SMILES>
CC1=C2C=C(C=CC2=NN1)C3=CC(=CN=C3)OCCN

> <PUBCHEM_OPENEYE_ISO_SMILES>
CC1=C2C=C(C=CC2=NN1)C3=CC(=CN=C3)OCCN

> <PUBCHEM_CACTVS_TPSA>
76.8

> <PUBCHEM_MONOISOTOPIC_WEIGHT>
268.13241115

> <PUBCHEM_TOTAL_CHARGE>
0

> <PUBCHEM_HEAVY_ATOM_COUNT>
20

> <PUBCHEM_ATOM_DEF_STEREO_COUNT>
0

> <PUBCHEM_ATOM_UDEF_STEREO_COUNT>
0

> <PUBCHEM_BOND_DEF_STEREO_COUNT>
0

> <PUBCHEM_BOND_UDEF_STEREO_COUNT>
0

> <PUBCHEM_ISOTOPIC_ATOM_COUNT>
0

> <PUBCHEM_COMPONENT_COUNT>
1

> <PUBCHEM_CACTVS_TAUTO_COUNT>
-1

> <PUBCHEM_COORDINATE_TYPE>
1
5
255

> <PUBCHEM_BONDANNOTATIONS>
11  14  8
11  17  8
12  13  8
14  16  8
16  19  8
2  10  8
2  3  8
3  8  8
4  17  8
4  19  8
6  10  8
6  8  8
6  9  8
7  12  8
7  9  8
8  13  8

$$$$
