49830917
  -OEChem-03202503302D

 50 53  0     0  0  0  0  0  0999 V2000
    7.2622    3.6550    0.0000 O   0  0  0  0  0  0  0  0  0  0  0  0
    9.8602    2.1550    0.0000 O   0  0  0  0  0  0  0  0  0  0  0  0
    7.2622   -3.3450    0.0000 O   0  0  0  0  0  0  0  0  0  0  0  0
    8.9942    3.6550    0.0000 O   0  0  0  0  0  0  0  0  0  0  0  0
    7.2622    0.6550    0.0000 N   0  0  0  0  0  0  0  0  0  0  0  0
    2.0038   -0.3758    0.0000 N   0  0  0  0  0  0  0  0  0  0  0  0
    6.3961    1.1550    0.0000 C   0  0  0  0  0  0  0  0  0  0  0  0
    6.3961    2.1550    0.0000 C   0  0  0  0  0  0  0  0  0  0  0  0
    7.2622   -0.3450    0.0000 C   0  0  0  0  0  0  0  0  0  0  0  0
    5.5022    0.6203    0.0000 C   0  0  0  0  0  0  0  0  0  0  0  0
    8.1282    1.1550    0.0000 C   0  0  0  0  0  0  0  0  0  0  0  0
    7.2622    2.6550    0.0000 C   0  0  0  0  0  0  0  0  0  0  0  0
    8.1282    2.1550    0.0000 C   0  0  0  0  0  0  0  0  0  0  0  0
    4.5961    1.1342    0.0000 C   0  0  0  0  0  0  0  0  0  0  0  0
    5.5022    2.6897    0.0000 C   0  0  0  0  0  0  0  0  0  0  0  0
    6.3961   -0.8450    0.0000 C   0  0  0  0  0  0  0  0  0  0  0  0
    4.5961    2.1758    0.0000 C   0  0  0  0  0  0  0  0  0  0  0  0
    8.1282   -0.8450    0.0000 C   0  0  0  0  0  0  0  0  0  0  0  0
    3.7320    0.6308    0.0000 C   0  0  0  0  0  0  0  0  0  0  0  0
    6.3961   -1.8450    0.0000 C   0  0  0  0  0  0  0  0  0  0  0  0
    5.5301   -0.3450    0.0000 C   0  0  0  0  0  0  0  0  0  0  0  0
    8.1282   -1.8450    0.0000 C   0  0  0  0  0  0  0  0  0  0  0  0
    8.9942    2.6550    0.0000 C   0  0  0  0  0  0  0  0  0  0  0  0
    7.2622   -2.3450    0.0000 C   0  0  0  0  0  0  0  0  0  0  0  0
    2.8641    1.1275    0.0000 C   0  0  0  0  0  0  0  0  0  0  0  0
    3.7359   -0.3691    0.0000 C   0  0  0  0  0  0  0  0  0  0  0  0
    2.0000    0.6242    0.0000 C   0  0  0  0  0  0  0  0  0  0  0  0
    2.8718   -0.8725    0.0000 C   0  0  0  0  0  0  0  0  0  0  0  0
   10.7263    2.6550    0.0000 C   0  0  0  0  0  0  0  0  0  0  0  0
   11.5923    2.1550    0.0000 C   0  0  0  0  0  0  0  0  0  0  0  0
    5.5094    0.0004    0.0000 H   0  0  0  0  0  0  0  0  0  0  0  0
    8.6651    0.8450    0.0000 H   0  0  0  0  0  0  0  0  0  0  0  0
    5.5094    3.3096    0.0000 H   0  0  0  0  0  0  0  0  0  0  0  0
    4.0604    2.4879    0.0000 H   0  0  0  0  0  0  0  0  0  0  0  0
    8.6651   -0.5350    0.0000 H   0  0  0  0  0  0  0  0  0  0  0  0
    5.8592   -2.1550    0.0000 H   0  0  0  0  0  0  0  0  0  0  0  0
    5.8401    0.1919    0.0000 H   0  0  0  0  0  0  0  0  0  0  0  0
    4.9932   -0.0350    0.0000 H   0  0  0  0  0  0  0  0  0  0  0  0
    5.2201   -0.8819    0.0000 H   0  0  0  0  0  0  0  0  0  0  0  0
    8.6651   -2.1550    0.0000 H   0  0  0  0  0  0  0  0  0  0  0  0
    2.8617    1.7475    0.0000 H   0  0  0  0  0  0  0  0  0  0  0  0
    4.2740   -0.6771    0.0000 H   0  0  0  0  0  0  0  0  0  0  0  0
    1.4619    0.9321    0.0000 H   0  0  0  0  0  0  0  0  0  0  0  0
    2.8742   -1.4925    0.0000 H   0  0  0  0  0  0  0  0  0  0  0  0
   11.1248    3.1300    0.0000 H   0  0  0  0  0  0  0  0  0  0  0  0
   10.3277    3.1300    0.0000 H   0  0  0  0  0  0  0  0  0  0  0  0
    7.7991   -3.6550    0.0000 H   0  0  0  0  0  0  0  0  0  0  0  0
   11.2823    1.6181    0.0000 H   0  0  0  0  0  0  0  0  0  0  0  0
   12.1292    1.8450    0.0000 H   0  0  0  0  0  0  0  0  0  0  0  0
   11.9023    2.6919    0.0000 H   0  0  0  0  0  0  0  0  0  0  0  0
  1 12  2  0  0  0  0
  2 23  1  0  0  0  0
  2 29  1  0  0  0  0
  3 24  1  0  0  0  0
  3 47  1  0  0  0  0
  4 23  2  0  0  0  0
  5  7  1  0  0  0  0
  5  9  1  0  0  0  0
  5 11  1  0  0  0  0
  6 27  2  0  0  0  0
  6 28  1  0  0  0  0
  7  8  2  0  0  0  0
  7 10  1  0  0  0  0
  8 12  1  0  0  0  0
  8 15  1  0  0  0  0
  9 16  2  0  0  0  0
  9 18  1  0  0  0  0
 10 14  2  0  0  0  0
 10 31  1  0  0  0  0
 11 13  2  0  0  0  0
 11 32  1  0  0  0  0
 12 13  1  0  0  0  0
 13 23  1  0  0  0  0
 14 17  1  0  0  0  0
 14 19  1  0  0  0  0
 15 17  2  0  0  0  0
 15 33  1  0  0  0  0
 16 20  1  0  0  0  0
 16 21  1  0  0  0  0
 17 34  1  0  0  0  0
 18 22  2  0  0  0  0
 18 35  1  0  0  0  0
 19 25  2  0  0  0  0
 19 26  1  0  0  0  0
 20 24  2  0  0  0  0
 20 36  1  0  0  0  0
 21 37  1  0  0  0  0
 21 38  1  0  0  0  0
 21 39  1  0  0  0  0
 22 24  1  0  0  0  0
 22 40  1  0  0  0  0
 25 27  1  0  0  0  0
 25 41  1  0  0  0  0
 26 28  2  0  0  0  0
 26 42  1  0  0  0  0
 27 43  1  0  0  0  0
 28 44  1  0  0  0  0
 29 30  1  0  0  0  0
 29 45  1  0  0  0  0
 29 46  1  0  0  0  0
 30 48  1  0  0  0  0
 30 49  1  0  0  0  0
 30 50  1  0  0  0  0
M  END
> <PUBCHEM_COMPOUND_CID>
49830917

> <PUBCHEM_COMPOUND_CANONICALIZED>
1

> <PUBCHEM_CACTVS_COMPLEXITY>
672

> <PUBCHEM_CACTVS_HBOND_ACCEPTOR>
6

> <PUBCHEM_CACTVS_HBOND_DONOR>
1

> <PUBCHEM_CACTVS_ROTATABLE_BOND>
5

> <PUBCHEM_CACTVS_SUBSKEYS>
AAADceB7OAAAAAAAAAAAAAAAAAAAAAAAAAA8YIEAAAAAAACB0AAAHgAACAAADAzhmgY+zpMIFgCoArT3TACCgCA1IiAI2CE+bNgIJn7KtZOGcYhk4BHI+ce42fOewEABQAACAACAgAKAAAQAAAAAAAAAAA==

> <PUBCHEM_IUPAC_OPENEYE_NAME>
ethyl 1-(4-hydroxy-2-methyl-phenyl)-4-oxo-7-(4-pyridyl)quinoline-3-carboxylate

> <PUBCHEM_IUPAC_CAS_NAME>
1-(4-hydroxy-2-methylphenyl)-4-oxo-7-pyridin-4-yl-3-quinolinecarboxylic acid ethyl ester

> <PUBCHEM_IUPAC_NAME_MARKUP>
ethyl 1-(4-hydroxy-2-methylphenyl)-4-oxo-7-pyridin-4-ylquinoline-3-carboxylate

> <PUBCHEM_IUPAC_NAME>
ethyl 1-(4-hydroxy-2-methylphenyl)-4-oxo-7-pyridin-4-ylquinoline-3-carboxylate

> <PUBCHEM_IUPAC_SYSTEMATIC_NAME>
ethyl 1-(2-methyl-4-oxidanyl-phenyl)-4-oxidanylidene-7-pyridin-4-yl-quinoline-3-carboxylate

> <PUBCHEM_IUPAC_TRADITIONAL_NAME>
1-(4-hydroxy-2-methyl-phenyl)-4-keto-7-(4-pyridyl)quinoline-3-carboxylic acid ethyl ester

> <PUBCHEM_IUPAC_INCHI>
InChI=1S/C24H20N2O4/c1-3-30-24(29)20-14-26(21-7-5-18(27)12-15(21)2)22-13-17(4-6-19(22)23(20)28)16-8-10-25-11-9-16/h4-14,27H,3H2,1-2H3

> <PUBCHEM_IUPAC_INCHIKEY>
WNMXOXGXHRHBLO-UHFFFAOYSA-N

> <PUBCHEM_XLOGP3_AA>
4.2

> <PUBCHEM_EXACT_MASS>
400.14230712

> <PUBCHEM_MOLECULAR_FORMULA>
C24H20N2O4

> <PUBCHEM_MOLECULAR_WEIGHT>
400.4

> <PUBCHEM_SMILES>
CCOC(=O)C1=CN(C2=C(C1=O)C=CC(=C2)C3=CC=NC=C3)C4=C(C=C(C=C4)O)C

> <PUBCHEM_OPENEYE_CAN_SMILES>
CCOC(=O)C1=CN(C2=C(C1=O)C=CC(=C2)C3=CC=NC=C3)C4=C(C=C(C=C4)O)C

> <PUBCHEM_OPENEYE_ISO_SMILES>
CCOC(=O)C1=CN(C2=C(C1=O)C=CC(=C2)C3=CC=NC=C3)C4=C(C=C(C=C4)O)C

> <PUBCHEM_CACTVS_TPSA>
79.7

> <PUBCHEM_MONOISOTOPIC_WEIGHT>
400.14230712

> <PUBCHEM_TOTAL_CHARGE>
0

> <PUBCHEM_HEAVY_ATOM_COUNT>
30

> <PUBCHEM_ATOM_DEF_STEREO_COUNT>
0

> <PUBCHEM_ATOM_UDEF_STEREO_COUNT>
0

> <PUBCHEM_BOND_DEF_STEREO_COUNT>
0

> <PUBCHEM_BOND_UDEF_STEREO_COUNT>
0

> <PUBCHEM_ISOTOPIC_ATOM_COUNT>
0

> <PUBCHEM_COMPONENT_COUNT>
1

> <PUBCHEM_CACTVS_TAUTO_COUNT>
-1

> <PUBCHEM_COORDINATE_TYPE>
1
5
255

> <PUBCHEM_BONDANNOTATIONS>
10  14  8
11  13  8
12  13  8
14  17  8
15  17  8
16  20  8
18  22  8
19  25  8
19  26  8
20  24  8
22  24  8
25  27  8
26  28  8
5  11  8
5  7  8
6  27  8
6  28  8
7  10  8
7  8  8
8  12  8
8  15  8
9  16  8
9  18  8

$$$$
