24905187
  -OEChem-03202500062D

 57 61  0     0  0  0  0  0  0999 V2000
    6.2980    3.8902    0.0000 O   0  0  0  0  0  0  0  0  0  0  0  0
    4.7133    3.1912    0.0000 O   0  0  0  0  0  0  0  0  0  0  0  0
    4.6783   -3.1515    0.0000 N   0  0  0  0  0  0  0  0  0  0  0  0
    5.2619   -2.3468    0.0000 N   0  0  0  0  0  0  0  0  0  0  0  0
    2.8660   -3.3468    0.0000 N   0  0  0  0  0  0  0  0  0  0  0  0
    2.0000   -1.8468    0.0000 N   0  0  0  0  0  0  0  0  0  0  0  0
    6.1110    2.1682    0.0000 N   0  0  0  0  0  0  0  0  0  0  0  0
    2.8660   -0.3468    0.0000 N   0  0  0  0  0  0  0  0  0  0  0  0
    4.9889   -4.1020    0.0000 C   0  0  0  0  0  0  0  0  0  0  0  0
    4.4026   -4.9121    0.0000 C   0  0  0  0  0  0  0  0  0  0  0  0
    5.9405   -4.4094    0.0000 C   0  0  0  0  0  0  0  0  0  0  0  0
    4.9917   -5.7201    0.0000 C   0  0  0  0  0  0  0  0  0  0  0  0
    5.9422   -5.4094    0.0000 C   0  0  0  0  0  0  0  0  0  0  0  0
    3.7320   -2.8468    0.0000 C   0  0  0  0  0  0  0  0  0  0  0  0
    3.7320   -1.8468    0.0000 C   0  0  0  0  0  0  0  0  0  0  0  0
    4.6783   -1.5420    0.0000 C   0  0  0  0  0  0  0  0  0  0  0  0
    4.9889   -0.5915    0.0000 C   0  0  0  0  0  0  0  0  0  0  0  0
    2.8660   -1.3468    0.0000 C   0  0  0  0  0  0  0  0  0  0  0  0
    5.9674   -0.3853    0.0000 C   0  0  0  0  0  0  0  0  0  0  0  0
    6.2781    0.5652    0.0000 C   0  0  0  0  0  0  0  0  0  0  0  0
    4.3211    0.1528    0.0000 C   0  0  0  0  0  0  0  0  0  0  0  0
    5.6103    1.3095    0.0000 C   0  0  0  0  0  0  0  0  0  0  0  0
    2.0000   -2.8468    0.0000 C   0  0  0  0  0  0  0  0  0  0  0  0
    4.6318    1.1033    0.0000 C   0  0  0  0  0  0  0  0  0  0  0  0
    7.1859    0.9703    0.0000 C   0  0  0  0  0  0  0  0  0  0  0  0
    5.8944    4.8051    0.0000 C   0  0  0  0  0  0  0  0  0  0  0  0
    7.0828    1.9590    0.0000 C   0  0  0  0  0  0  0  0  0  0  0  0
    5.7074    3.0832    0.0000 C   0  0  0  0  0  0  0  0  0  0  0  0
    5.4909    5.7201    0.0000 C   0  0  0  0  0  0  0  0  0  0  0  0
    6.8094    5.2087    0.0000 C   0  0  0  0  0  0  0  0  0  0  0  0
    4.9795    4.4016    0.0000 C   0  0  0  0  0  0  0  0  0  0  0  0
    5.4266   -3.6629    0.0000 H   0  0  0  0  0  0  0  0  0  0  0  0
    3.9411   -4.4980    0.0000 H   0  0  0  0  0  0  0  0  0  0  0  0
    3.9425   -5.3277    0.0000 H   0  0  0  0  0  0  0  0  0  0  0  0
    6.5572   -4.4732    0.0000 H   0  0  0  0  0  0  0  0  0  0  0  0
    6.0684   -3.8027    0.0000 H   0  0  0  0  0  0  0  0  0  0  0  0
    4.4553   -6.0310    0.0000 H   0  0  0  0  0  0  0  0  0  0  0  0
    5.2449   -6.2860    0.0000 H   0  0  0  0  0  0  0  0  0  0  0  0
    6.0722   -6.0156    0.0000 H   0  0  0  0  0  0  0  0  0  0  0  0
    6.5587   -5.3435    0.0000 H   0  0  0  0  0  0  0  0  0  0  0  0
    6.3815   -0.8468    0.0000 H   0  0  0  0  0  0  0  0  0  0  0  0
    3.7144    0.0249    0.0000 H   0  0  0  0  0  0  0  0  0  0  0  0
    1.4631   -3.1568    0.0000 H   0  0  0  0  0  0  0  0  0  0  0  0
    4.2177    1.5648    0.0000 H   0  0  0  0  0  0  0  0  0  0  0  0
    7.7228    0.6603    0.0000 H   0  0  0  0  0  0  0  0  0  0  0  0
    2.3291   -0.0368    0.0000 H   0  0  0  0  0  0  0  0  0  0  0  0
    3.4030   -0.0368    0.0000 H   0  0  0  0  0  0  0  0  0  0  0  0
    7.5443    2.3731    0.0000 H   0  0  0  0  0  0  0  0  0  0  0  0
    6.0582    5.9703    0.0000 H   0  0  0  0  0  0  0  0  0  0  0  0
    5.2407    6.2873    0.0000 H   0  0  0  0  0  0  0  0  0  0  0  0
    4.9236    5.4698    0.0000 H   0  0  0  0  0  0  0  0  0  0  0  0
    7.0596    4.6414    0.0000 H   0  0  0  0  0  0  0  0  0  0  0  0
    7.3767    5.4589    0.0000 H   0  0  0  0  0  0  0  0  0  0  0  0
    6.5592    5.7760    0.0000 H   0  0  0  0  0  0  0  0  0  0  0  0
    4.7293    4.9688    0.0000 H   0  0  0  0  0  0  0  0  0  0  0  0
    4.4122    4.1513    0.0000 H   0  0  0  0  0  0  0  0  0  0  0  0
    5.2297    3.8343    0.0000 H   0  0  0  0  0  0  0  0  0  0  0  0
  1 26  1  0  0  0  0
  1 28  1  0  0  0  0
  2 28  2  0  0  0  0
  3  4  1  0  0  0  0
  3  9  1  0  0  0  0
  3 14  1  0  0  0  0
  4 16  2  0  0  0  0
  5 14  2  0  0  0  0
  5 23  1  0  0  0  0
  6 18  1  0  0  0  0
  6 23  2  0  0  0  0
  7 22  1  0  0  0  0
  7 27  1  0  0  0  0
  7 28  1  0  0  0  0
  8 18  1  0  0  0  0
  8 46  1  0  0  0  0
  8 47  1  0  0  0  0
  9 10  1  0  0  0  0
  9 11  1  0  0  0  0
  9 32  1  0  0  0  0
 10 12  1  0  0  0  0
 10 33  1  0  0  0  0
 10 34  1  0  0  0  0
 11 13  1  0  0  0  0
 11 35  1  0  0  0  0
 11 36  1  0  0  0  0
 12 13  1  0  0  0  0
 12 37  1  0  0  0  0
 12 38  1  0  0  0  0
 13 39  1  0  0  0  0
 13 40  1  0  0  0  0
 14 15  1  0  0  0  0
 15 16  1  0  0  0  0
 15 18  2  0  0  0  0
 16 17  1  0  0  0  0
 17 19  2  0  0  0  0
 17 21  1  0  0  0  0
 19 20  1  0  0  0  0
 19 41  1  0  0  0  0
 20 22  2  0  0  0  0
 20 25  1  0  0  0  0
 21 24  2  0  0  0  0
 21 42  1  0  0  0  0
 22 24  1  0  0  0  0
 23 43  1  0  0  0  0
 24 44  1  0  0  0  0
 25 27  2  0  0  0  0
 25 45  1  0  0  0  0
 26 29  1  0  0  0  0
 26 30  1  0  0  0  0
 26 31  1  0  0  0  0
 27 48  1  0  0  0  0
 29 49  1  0  0  0  0
 29 50  1  0  0  0  0
 29 51  1  0  0  0  0
 30 52  1  0  0  0  0
 30 53  1  0  0  0  0
 30 54  1  0  0  0  0
 31 55  1  0  0  0  0
 31 56  1  0  0  0  0
 31 57  1  0  0  0  0
M  END
> <PUBCHEM_COMPOUND_CID>
24905187

> <PUBCHEM_COMPOUND_CANONICALIZED>
1

> <PUBCHEM_CACTVS_COMPLEXITY>
663

> <PUBCHEM_CACTVS_HBOND_ACCEPTOR>
6

> <PUBCHEM_CACTVS_HBOND_DONOR>
1

> <PUBCHEM_CACTVS_ROTATABLE_BOND>
4

> <PUBCHEM_CACTVS_SUBSKEYS>
AAADceB7sAAAAAAAAAAAAAAAAAAAAeLEAAA8QAAAAAAAAFgB/gAAHgAYAAAADGzBnwQ/+P9MFACqAzZnfACShCsxgqAd2CA4ZJiIKOLA2dGMpAhojgLIyCcQgMAOCAACAAACAAAQAAQAAAQAAAAAAAAAAA==

> <PUBCHEM_IUPAC_OPENEYE_NAME>
tert-butyl 5-(4-amino-1-cyclopentyl-pyrazolo[3,4-d]pyrimidin-3-yl)indole-1-carboxylate

> <PUBCHEM_IUPAC_CAS_NAME>
5-(4-amino-1-cyclopentyl-3-pyrazolo[3,4-d]pyrimidinyl)-1-indolecarboxylic acid tert-butyl ester

> <PUBCHEM_IUPAC_NAME_MARKUP>
<I>tert</I>-butyl 5-(4-amino-1-cyclopentylpyrazolo[3,4-d]pyrimidin-3-yl)indole-1-carboxylate

> <PUBCHEM_IUPAC_NAME>
tert-butyl 5-(4-amino-1-cyclopentylpyrazolo[3,4-d]pyrimidin-3-yl)indole-1-carboxylate

> <PUBCHEM_IUPAC_SYSTEMATIC_NAME>
tert-butyl 5-(4-azanyl-1-cyclopentyl-pyrazolo[3,4-d]pyrimidin-3-yl)indole-1-carboxylate

> <PUBCHEM_IUPAC_TRADITIONAL_NAME>
5-(4-amino-1-cyclopentyl-pyrazolo[3,4-d]pyrimidin-3-yl)indole-1-carboxylic acid tert-butyl ester

> <PUBCHEM_IUPAC_INCHI>
InChI=1S/C23H26N6O2/c1-23(2,3)31-22(30)28-11-10-14-12-15(8-9-17(14)28)19-18-20(24)25-13-26-21(18)29(27-19)16-6-4-5-7-16/h8-13,16H,4-7H2,1-3H3,(H2,24,25,26)

> <PUBCHEM_IUPAC_INCHIKEY>
FASPJDRKOSUHHS-UHFFFAOYSA-N

> <PUBCHEM_XLOGP3_AA>
4

> <PUBCHEM_EXACT_MASS>
418.21172409

> <PUBCHEM_MOLECULAR_FORMULA>
C23H26N6O2

> <PUBCHEM_MOLECULAR_WEIGHT>
418.5

> <PUBCHEM_SMILES>
CC(C)(C)OC(=O)N1C=CC2=C1C=CC(=C2)C3=NN(C4=NC=NC(=C34)N)C5CCCC5

> <PUBCHEM_OPENEYE_CAN_SMILES>
CC(C)(C)OC(=O)N1C=CC2=C1C=CC(=C2)C3=NN(C4=NC=NC(=C34)N)C5CCCC5

> <PUBCHEM_OPENEYE_ISO_SMILES>
CC(C)(C)OC(=O)N1C=CC2=C1C=CC(=C2)C3=NN(C4=NC=NC(=C34)N)C5CCCC5

> <PUBCHEM_CACTVS_TPSA>
101

> <PUBCHEM_MONOISOTOPIC_WEIGHT>
418.21172409

> <PUBCHEM_TOTAL_CHARGE>
0

> <PUBCHEM_HEAVY_ATOM_COUNT>
31

> <PUBCHEM_ATOM_DEF_STEREO_COUNT>
0

> <PUBCHEM_ATOM_UDEF_STEREO_COUNT>
0

> <PUBCHEM_BOND_DEF_STEREO_COUNT>
0

> <PUBCHEM_BOND_UDEF_STEREO_COUNT>
0

> <PUBCHEM_ISOTOPIC_ATOM_COUNT>
0

> <PUBCHEM_COMPONENT_COUNT>
1

> <PUBCHEM_CACTVS_TAUTO_COUNT>
-1

> <PUBCHEM_COORDINATE_TYPE>
1
5
255

> <PUBCHEM_BONDANNOTATIONS>
14  15  8
15  16  8
15  18  8
17  19  8
17  21  8
19  20  8
20  22  8
20  25  8
21  24  8
22  24  8
25  27  8
3  14  8
3  4  8
4  16  8
5  14  8
5  23  8
6  18  8
6  23  8
7  22  8
7  27  8

$$$$
