15604547
  -OEChem-03202504422D

 54 58  0     1  0  0  0  0  0999 V2000
    6.1831   -0.3719    0.0000 O   0  0  0  0  0  0  0  0  0  0  0  0
    4.9511    4.1579    0.0000 N   0  0  0  0  0  0  0  0  0  0  0  0
    6.1831    1.6281    0.0000 N   0  0  0  0  0  0  0  0  0  0  0  0
    5.3171   -2.8719    0.0000 N   0  0  0  0  0  0  0  0  0  0  0  0
   11.4472   -4.3927    0.0000 N   0  0  0  0  0  0  0  0  0  0  0  0
   12.3113   -2.8477    0.0000 N   0  0  0  0  0  0  0  0  0  0  0  0
    4.4511    1.6281    0.0000 C   0  0  0  0  0  0  0  0  0  0  0  0
    5.3171    1.1281    0.0000 C   0  0  1  0  0  0  0  0  0  0  0  0
    4.4511    2.6281    0.0000 C   0  0  0  0  0  0  0  0  0  0  0  0
    3.6464    3.2117    0.0000 C   0  0  0  0  0  0  0  0  0  0  0  0
    5.3171    0.1281    0.0000 C   0  0  0  0  0  0  0  0  0  0  0  0
    3.9570    4.1622    0.0000 C   0  0  0  0  0  0  0  0  0  0  0  0
    5.2558    3.2117    0.0000 C   0  0  0  0  0  0  0  0  0  0  0  0
    2.6678    3.0055    0.0000 C   0  0  0  0  0  0  0  0  0  0  0  0
    3.2892    4.9066    0.0000 C   0  0  0  0  0  0  0  0  0  0  0  0
    2.0000    3.7498    0.0000 C   0  0  0  0  0  0  0  0  0  0  0  0
    2.3107    4.7003    0.0000 C   0  0  0  0  0  0  0  0  0  0  0  0
    6.1831   -1.3719    0.0000 C   0  0  0  0  0  0  0  0  0  0  0  0
    7.9152   -3.3719    0.0000 C   0  0  0  0  0  0  0  0  0  0  0  0
    7.0492   -2.8719    0.0000 C   0  0  0  0  0  0  0  0  0  0  0  0
    7.0492   -1.8719    0.0000 C   0  0  0  0  0  0  0  0  0  0  0  0
    9.6472   -3.3719    0.0000 C   0  0  0  0  0  0  0  0  0  0  0  0
    8.7812   -2.8719    0.0000 C   0  0  0  0  0  0  0  0  0  0  0  0
    9.6472   -4.3719    0.0000 C   0  0  0  0  0  0  0  0  0  0  0  0
    7.9152   -4.3719    0.0000 C   0  0  0  0  0  0  0  0  0  0  0  0
    5.3171   -1.8719    0.0000 C   0  0  0  0  0  0  0  0  0  0  0  0
    8.7812   -4.8719    0.0000 C   0  0  0  0  0  0  0  0  0  0  0  0
    6.1831   -3.3719    0.0000 C   0  0  0  0  0  0  0  0  0  0  0  0
   10.5412   -2.8372    0.0000 C   0  0  0  0  0  0  0  0  0  0  0  0
   10.5412   -4.9066    0.0000 C   0  0  0  0  0  0  0  0  0  0  0  0
   11.4472   -3.3511    0.0000 C   0  0  0  0  0  0  0  0  0  0  0  0
    3.8405    1.7358    0.0000 H   0  0  0  0  0  0  0  0  0  0  0  0
    4.2390    1.0455    0.0000 H   0  0  0  0  0  0  0  0  0  0  0  0
    5.3171    1.7481    0.0000 H   0  0  0  0  0  0  0  0  0  0  0  0
    4.7065    0.2358    0.0000 H   0  0  0  0  0  0  0  0  0  0  0  0
    5.1050   -0.4545    0.0000 H   0  0  0  0  0  0  0  0  0  0  0  0
    5.8451    3.0191    0.0000 H   0  0  0  0  0  0  0  0  0  0  0  0
    5.3172    4.6583    0.0000 H   0  0  0  0  0  0  0  0  0  0  0  0
    2.4752    2.4162    0.0000 H   0  0  0  0  0  0  0  0  0  0  0  0
    6.7201    1.3181    0.0000 H   0  0  0  0  0  0  0  0  0  0  0  0
    6.1831    2.2481    0.0000 H   0  0  0  0  0  0  0  0  0  0  0  0
    3.4818    5.4959    0.0000 H   0  0  0  0  0  0  0  0  0  0  0  0
    1.3933    3.6220    0.0000 H   0  0  0  0  0  0  0  0  0  0  0  0
    1.8966    5.1618    0.0000 H   0  0  0  0  0  0  0  0  0  0  0  0
    7.5861   -1.5619    0.0000 H   0  0  0  0  0  0  0  0  0  0  0  0
    8.7812   -2.2519    0.0000 H   0  0  0  0  0  0  0  0  0  0  0  0
    7.3782   -4.6819    0.0000 H   0  0  0  0  0  0  0  0  0  0  0  0
    8.7812   -5.4919    0.0000 H   0  0  0  0  0  0  0  0  0  0  0  0
    4.7802   -1.5619    0.0000 H   0  0  0  0  0  0  0  0  0  0  0  0
    6.1831   -3.9919    0.0000 H   0  0  0  0  0  0  0  0  0  0  0  0
   10.5340   -2.2173    0.0000 H   0  0  0  0  0  0  0  0  0  0  0  0
   10.5340   -5.5265    0.0000 H   0  0  0  0  0  0  0  0  0  0  0  0
   12.8495   -3.1557    0.0000 H   0  0  0  0  0  0  0  0  0  0  0  0
   12.3089   -2.2277    0.0000 H   0  0  0  0  0  0  0  0  0  0  0  0
  1 11  1  0  0  0  0
  1 18  1  0  0  0  0
  2 12  1  0  0  0  0
  2 13  1  0  0  0  0
  2 38  1  0  0  0  0
  8  3  1  6  0  0  0
  3 40  1  0  0  0  0
  3 41  1  0  0  0  0
  4 26  1  0  0  0  0
  4 28  2  0  0  0  0
  5 30  1  0  0  0  0
  5 31  2  0  0  0  0
  6 31  1  0  0  0  0
  6 53  1  0  0  0  0
  6 54  1  0  0  0  0
  7  8  1  0  0  0  0
  7  9  1  0  0  0  0
  7 32  1  0  0  0  0
  7 33  1  0  0  0  0
  8 11  1  0  0  0  0
  8 34  1  0  0  0  0
  9 10  1  0  0  0  0
  9 13  2  0  0  0  0
 10 12  1  0  0  0  0
 10 14  2  0  0  0  0
 11 35  1  0  0  0  0
 11 36  1  0  0  0  0
 12 15  2  0  0  0  0
 13 37  1  0  0  0  0
 14 16  1  0  0  0  0
 14 39  1  0  0  0  0
 15 17  1  0  0  0  0
 15 42  1  0  0  0  0
 16 17  2  0  0  0  0
 16 43  1  0  0  0  0
 17 44  1  0  0  0  0
 18 21  1  0  0  0  0
 18 26  2  0  0  0  0
 19 20  1  0  0  0  0
 19 23  2  0  0  0  0
 19 25  1  0  0  0  0
 20 21  2  0  0  0  0
 20 28  1  0  0  0  0
 21 45  1  0  0  0  0
 22 23  1  0  0  0  0
 22 24  1  0  0  0  0
 22 29  2  0  0  0  0
 23 46  1  0  0  0  0
 24 27  1  0  0  0  0
 24 30  2  0  0  0  0
 25 27  2  0  0  0  0
 25 47  1  0  0  0  0
 26 49  1  0  0  0  0
 27 48  1  0  0  0  0
 28 50  1  0  0  0  0
 29 31  1  0  0  0  0
 29 51  1  0  0  0  0
 30 52  1  0  0  0  0
M  END
> <PUBCHEM_COMPOUND_CID>
15604547

> <PUBCHEM_COMPOUND_CANONICALIZED>
1

> <PUBCHEM_CACTVS_COMPLEXITY>
576

> <PUBCHEM_CACTVS_HBOND_ACCEPTOR>
5

> <PUBCHEM_CACTVS_HBOND_DONOR>
3

> <PUBCHEM_CACTVS_ROTATABLE_BOND>
6

> <PUBCHEM_CACTVS_SUBSKEYS>
AAADceB7oAAAAAAAAAAAAAAAAAAAAWAAAAA8eIEAAAAAAFix/gAAHgAQAAAADCzhngY99vLJlACgAzZnZASCiCkxYiAI2aA/bJiOJuLEsZuHOCjk0BPY6Cew0PIOwAACAAASAACAAAQAACQAAAAAAAAAAA==

> <PUBCHEM_IUPAC_OPENEYE_NAME>
6-[5-[(2S)-2-amino-3-(1H-indol-3-yl)propoxy]-3-pyridyl]isoquinolin-3-amine

> <PUBCHEM_IUPAC_CAS_NAME>
6-[5-[(2S)-2-amino-3-(1H-indol-3-yl)propoxy]-3-pyridinyl]-3-isoquinolinamine

> <PUBCHEM_IUPAC_NAME_MARKUP>
6-[5-[(2<I>S</I>)-2-amino-3-(1<I>H</I>-indol-3-yl)propoxy]pyridin-3-yl]isoquinolin-3-amine

> <PUBCHEM_IUPAC_NAME>
6-[5-[(2S)-2-amino-3-(1H-indol-3-yl)propoxy]pyridin-3-yl]isoquinolin-3-amine

> <PUBCHEM_IUPAC_SYSTEMATIC_NAME>
6-[5-[(2S)-2-azanyl-3-(1H-indol-3-yl)propoxy]pyridin-3-yl]isoquinolin-3-amine

> <PUBCHEM_IUPAC_TRADITIONAL_NAME>
[6-[5-[(2S)-2-amino-3-(1H-indol-3-yl)propoxy]-3-pyridyl]-3-isoquinolyl]amine

> <PUBCHEM_IUPAC_INCHI>
InChI=1S/C25H23N5O/c26-21(8-20-13-29-24-4-2-1-3-23(20)24)15-31-22-9-19(11-28-14-22)16-5-6-17-12-30-25(27)10-18(17)7-16/h1-7,9-14,21,29H,8,15,26H2,(H2,27,30)/t21-/m0/s1

> <PUBCHEM_IUPAC_INCHIKEY>
OARXLGLBMAHALM-NRFANRHFSA-N

> <PUBCHEM_XLOGP3_AA>
3.5

> <PUBCHEM_EXACT_MASS>
409.19026037

> <PUBCHEM_MOLECULAR_FORMULA>
C25H23N5O

> <PUBCHEM_MOLECULAR_WEIGHT>
409.5

> <PUBCHEM_SMILES>
C1=CC=C2C(=C1)C(=CN2)C[C@@H](COC3=CN=CC(=C3)C4=CC5=CC(=NC=C5C=C4)N)N

> <PUBCHEM_OPENEYE_CAN_SMILES>
C1=CC=C2C(=C1)C(=CN2)CC(COC3=CN=CC(=C3)C4=CC5=CC(=NC=C5C=C4)N)N

> <PUBCHEM_OPENEYE_ISO_SMILES>
C1=CC=C2C(=C1)C(=CN2)C[C@@H](COC3=CN=CC(=C3)C4=CC5=CC(=NC=C5C=C4)N)N

> <PUBCHEM_CACTVS_TPSA>
103

> <PUBCHEM_MONOISOTOPIC_WEIGHT>
409.19026037

> <PUBCHEM_TOTAL_CHARGE>
0

> <PUBCHEM_HEAVY_ATOM_COUNT>
31

> <PUBCHEM_ATOM_DEF_STEREO_COUNT>
1

> <PUBCHEM_ATOM_UDEF_STEREO_COUNT>
0

> <PUBCHEM_BOND_DEF_STEREO_COUNT>
0

> <PUBCHEM_BOND_UDEF_STEREO_COUNT>
0

> <PUBCHEM_ISOTOPIC_ATOM_COUNT>
0

> <PUBCHEM_COMPONENT_COUNT>
1

> <PUBCHEM_CACTVS_TAUTO_COUNT>
-1

> <PUBCHEM_COORDINATE_TYPE>
1
5
255

> <PUBCHEM_BONDANNOTATIONS>
10  12  8
10  14  8
12  15  8
14  16  8
15  17  8
16  17  8
18  21  8
18  26  8
19  23  8
19  25  8
2  12  8
2  13  8
20  21  8
20  28  8
22  23  8
22  24  8
22  29  8
24  27  8
24  30  8
25  27  8
29  31  8
8  3  6
4  26  8
4  28  8
5  30  8
5  31  8
9  10  8
9  13  8

$$$$
