44460330
  -OEChem-03222501252D

115126  0     1  0  0  0  0  0999 V2000
    8.1297   -4.2683    0.0000 O   0  0  0  0  0  0  0  0  0  0  0  0
   10.9452   -3.4799    0.0000 O   0  0  0  0  0  0  0  0  0  0  0  0
    6.3569   -4.2225    0.0000 O   0  0  0  0  0  0  0  0  0  0  0  0
    8.7847   -4.7790    0.0000 O   0  0  0  0  0  0  0  0  0  0  0  0
   10.5930   -4.1177    0.0000 O   0  0  0  0  0  0  0  0  0  0  0  0
    8.7765   -3.6048    0.0000 O   0  0  0  0  0  0  0  0  0  0  0  0
    9.6808   -5.2546    0.0000 O   0  0  0  0  0  0  0  0  0  0  0  0
    7.0843   -0.6788    0.0000 O   0  0  0  0  0  0  0  0  0  0  0  0
    6.8084   -5.3017    0.0000 O   0  0  0  0  0  0  0  0  0  0  0  0
    6.0564   -2.4660    0.0000 O   0  0  0  0  0  0  0  0  0  0  0  0
    6.9180   -6.5582    0.0000 O   0  0  0  0  0  0  0  0  0  0  0  0
   10.0944    0.9576    0.0000 O   0  0  0  0  0  0  0  0  0  0  0  0
   12.9709   -3.0486    0.0000 O   0  0  0  0  0  0  0  0  0  0  0  0
    7.5699   -0.7814    0.0000 O   0  0  0  0  0  0  0  0  0  0  0  0
    8.2960    2.0400    0.0000 O   0  0  0  0  0  0  0  0  0  0  0  0
   13.5894   -0.9841    0.0000 O   0  0  0  0  0  0  0  0  0  0  0  0
   11.7461    0.1189    0.0000 O   0  0  0  0  0  0  0  0  0  0  0  0
    9.7500   -0.7558    0.0000 O   0  0  0  0  0  0  0  0  0  0  0  0
    4.6912    1.0741    0.0000 O   0  0  0  0  0  0  0  0  0  0  0  0
    8.9032    3.5060    0.0000 O   0  0  0  0  0  0  0  0  0  0  0  0
   11.3595   -1.0615    0.0000 O   0  0  0  0  0  0  0  0  0  0  0  0
    3.4323    2.0400    0.0000 O   0  0  0  0  0  0  0  0  0  0  0  0
    5.1680    5.3859    0.0000 O   0  0  0  0  0  0  0  0  0  0  0  0
    8.5259    6.1507    0.0000 O   0  0  0  0  0  0  0  0  0  0  0  0
    5.7272    5.5357    0.0000 O   0  0  0  0  0  0  0  0  0  0  0  0
    6.5474    6.6809    0.0000 O   0  0  0  0  0  0  0  0  0  0  0  0
    2.4367    4.5191    0.0000 O   0  0  0  0  0  0  0  0  0  0  0  0
    3.8851    5.9675    0.0000 O   0  0  0  0  0  0  0  0  0  0  0  0
   13.8204    1.0772    0.0000 O   0  0  0  0  0  0  0  0  0  0  0  0
   11.0093    3.1015    0.0000 O   0  0  0  0  0  0  0  0  0  0  0  0
   12.9992    2.9009    0.0000 O   0  0  0  0  0  0  0  0  0  0  0  0
    8.3006   -2.3420    0.0000 C   0  0  3  0  0  0  0  0  0  0  0  0
    7.6541   -3.2553    0.0000 C   0  0  3  0  0  0  0  0  0  0  0  0
    9.3718   -2.4246    0.0000 C   0  0  3  0  0  0  0  0  0  0  0  0
    9.8706   -3.4263    0.0000 C   0  0  3  0  0  0  0  0  0  0  0  0
    7.9748   -4.2025    0.0000 C   0  0  3  0  0  0  0  0  0  0  0  0
    9.2454   -4.3544    0.0000 C   0  0  3  0  0  0  0  0  0  0  0  0
    7.1451   -3.4073    0.0000 C   0  0  0  0  0  0  0  0  0  0  0  0
    7.1731   -4.8002    0.0000 C   0  0  3  0  0  0  0  0  0  0  0  0
    7.7119   -4.8732    0.0000 C   0  0  0  0  0  0  0  0  0  0  0  0
   10.3157   -1.9114    0.0000 C   0  0  0  0  0  0  0  0  0  0  0  0
    6.6542   -3.2677    0.0000 C   0  0  0  0  0  0  0  0  0  0  0  0
    7.4466   -1.6902    0.0000 C   0  0  0  0  0  0  0  0  0  0  0  0
    7.4944   -5.7410    0.0000 C   0  0  3  0  0  0  0  0  0  0  0  0
   11.2485   -2.4476    0.0000 C   0  0  0  0  0  0  0  0  0  0  0  0
    8.4884   -5.7278    0.0000 C   0  0  0  0  0  0  0  0  0  0  0  0
   10.8288   -0.9676    0.0000 C   0  0  0  0  0  0  0  0  0  0  0  0
    6.6394   -2.2805    0.0000 C   0  0  0  0  0  0  0  0  0  0  0  0
   12.3174   -2.2917    0.0000 C   0  0  0  0  0  0  0  0  0  0  0  0
    7.3301    0.3670    0.0000 C   0  0  3  0  0  0  0  0  0  0  0  0
   11.8203   -0.5391    0.0000 C   0  0  0  0  0  0  0  0  0  0  0  0
    8.0372    1.0741    0.0000 C   0  0  3  0  0  0  0  0  0  0  0  0
   10.7462    0.1036    0.0000 C   0  0  0  0  0  0  0  0  0  0  0  0
   12.6274   -1.2570    0.0000 C   0  0  0  0  0  0  0  0  0  0  0  0
    6.3642    0.1082    0.0000 C   0  0  3  0  0  0  0  0  0  0  0  0
    9.0830    1.3200    0.0000 C   0  0  3  0  0  0  0  0  0  0  0  0
    8.9385   -0.1714    0.0000 C   0  0  3  0  0  0  0  0  0  0  0  0
    5.3982    0.3670    0.0000 C   0  0  0  0  0  0  0  0  0  0  0  0
    8.0372    3.0060    0.0000 C   0  0  0  0  0  0  0  0  0  0  0  0
   10.6618   -0.3452    0.0000 C   0  0  0  0  0  0  0  0  0  0  0  0
    7.3301    3.7131    0.0000 C   0  0  0  0  0  0  0  0  0  0  0  0
    4.4323    2.0400    0.0000 C   0  0  0  0  0  0  0  0  0  0  0  0
    6.3642    3.9719    0.0000 C   0  0  0  0  0  0  0  0  0  0  0  0
    4.6912    3.0060    0.0000 C   0  0  0  0  0  0  0  0  0  0  0  0
   11.2461    0.4664    0.0000 C   0  0  0  0  0  0  0  0  0  0  0  0
    5.3982    3.7131    0.0000 C   0  0  0  0  0  0  0  0  0  0  0  0
    8.0779    4.4382    0.0000 C   0  0  0  0  0  0  0  0  0  0  0  0
    6.0791    4.9738    0.0000 C   0  0  0  0  0  0  0  0  0  0  0  0
    3.6810    3.2600    0.0000 C   0  0  0  0  0  0  0  0  0  0  0  0
    7.8161    5.4464    0.0000 C   0  0  0  0  0  0  0  0  0  0  0  0
   10.8355    1.3782    0.0000 C   0  0  0  0  0  0  0  0  0  0  0  0
   12.2411    0.3660    0.0000 C   0  0  0  0  0  0  0  0  0  0  0  0
    5.1442    4.7232    0.0000 C   0  0  0  0  0  0  0  0  0  0  0  0
    6.8100    5.7160    0.0000 C   0  0  0  0  0  0  0  0  0  0  0  0
    3.4036    4.2640    0.0000 C   0  0  0  0  0  0  0  0  0  0  0  0
    4.1402    5.0006    0.0000 C   0  0  0  0  0  0  0  0  0  0  0  0
   12.8254    1.1776    0.0000 C   0  0  0  0  0  0  0  0  0  0  0  0
   11.4199    2.1897    0.0000 C   0  0  0  0  0  0  0  0  0  0  0  0
   12.4148    2.0894    0.0000 C   0  0  0  0  0  0  0  0  0  0  0  0
    9.2422   -1.8182    0.0000 H   0  0  0  0  0  0  0  0  0  0  0  0
    6.7851   -2.9025    0.0000 H   0  0  0  0  0  0  0  0  0  0  0  0
    6.5993   -3.7014    0.0000 H   0  0  0  0  0  0  0  0  0  0  0  0
    6.6766   -5.1715    0.0000 H   0  0  0  0  0  0  0  0  0  0  0  0
    6.8807   -5.6529    0.0000 H   0  0  0  0  0  0  0  0  0  0  0  0
    8.4314   -6.3452    0.0000 H   0  0  0  0  0  0  0  0  0  0  0  0
    9.0963   -5.8494    0.0000 H   0  0  0  0  0  0  0  0  0  0  0  0
   10.4457   -4.7200    0.0000 H   0  0  0  0  0  0  0  0  0  0  0  0
    8.7041   -2.9890    0.0000 H   0  0  0  0  0  0  0  0  0  0  0  0
    9.3324   -5.7674    0.0000 H   0  0  0  0  0  0  0  0  0  0  0  0
    6.0723   -2.0301    0.0000 H   0  0  0  0  0  0  0  0  0  0  0  0
    6.7062   -2.8969    0.0000 H   0  0  0  0  0  0  0  0  0  0  0  0
    6.8985   -0.0781    0.0000 H   0  0  0  0  0  0  0  0  0  0  0  0
   11.9188    0.0730    0.0000 H   0  0  0  0  0  0  0  0  0  0  0  0
    7.1782   -7.1210    0.0000 H   0  0  0  0  0  0  0  0  0  0  0  0
    8.4823    1.5057    0.0000 H   0  0  0  0  0  0  0  0  0  0  0  0
    6.0952   -0.4504    0.0000 H   0  0  0  0  0  0  0  0  0  0  0  0
    9.1181    1.9390    0.0000 H   0  0  0  0  0  0  0  0  0  0  0  0
    9.5033    0.0843    0.0000 H   0  0  0  0  0  0  0  0  0  0  0  0
   13.5799   -2.9324    0.0000 H   0  0  0  0  0  0  0  0  0  0  0  0
    4.8363    0.1050    0.0000 H   0  0  0  0  0  0  0  0  0  0  0  0
    5.7082    0.9039    0.0000 H   0  0  0  0  0  0  0  0  0  0  0  0
   13.7412   -0.3830    0.0000 H   0  0  0  0  0  0  0  0  0  0  0  0
    8.6749    4.2708    0.0000 H   0  0  0  0  0  0  0  0  0  0  0  0
    3.2477    2.8166    0.0000 H   0  0  0  0  0  0  0  0  0  0  0  0
   10.2187    1.4404    0.0000 H   0  0  0  0  0  0  0  0  0  0  0  0
   12.4957   -0.1993    0.0000 H   0  0  0  0  0  0  0  0  0  0  0  0
    4.8995    5.9447    0.0000 H   0  0  0  0  0  0  0  0  0  0  0  0
    9.1242    5.9880    0.0000 H   0  0  0  0  0  0  0  0  0  0  0  0
    5.6803    6.1539    0.0000 H   0  0  0  0  0  0  0  0  0  0  0  0
    6.9841    7.1210    0.0000 H   0  0  0  0  0  0  0  0  0  0  0  0
    2.0000    4.0790    0.0000 H   0  0  0  0  0  0  0  0  0  0  0  0
    3.2868    6.1303    0.0000 H   0  0  0  0  0  0  0  0  0  0  0  0
   14.1827    1.5804    0.0000 H   0  0  0  0  0  0  0  0  0  0  0  0
   10.3924    3.1637    0.0000 H   0  0  0  0  0  0  0  0  0  0  0  0
   13.6161    2.8387    0.0000 H   0  0  0  0  0  0  0  0  0  0  0  0
  1 33  1  0  0  0  0
  1 37  1  0  0  0  0
  2 35  1  0  0  0  0
  2 45  1  0  0  0  0
  3 39  1  0  0  0  0
  3 42  1  0  0  0  0
  4 36  1  0  0  0  0
  4 46  1  0  0  0  0
  5 35  1  0  0  0  0
  5 87  1  0  0  0  0
  6 36  1  0  0  0  0
  6 88  1  0  0  0  0
  7 37  1  0  0  0  0
  7 89  1  0  0  0  0
  8 43  1  0  0  0  0
  8 50  1  0  0  0  0
  9 40  2  0  0  0  0
 10 42  2  0  0  0  0
 11 44  1  0  0  0  0
 11 94  1  0  0  0  0
 12 53  1  0  0  0  0
 12 56  1  0  0  0  0
 13 49  1  0  0  0  0
 13 99  1  0  0  0  0
 14 55  1  0  0  0  0
 14 57  1  0  0  0  0
 15 52  1  0  0  0  0
 15 59  1  0  0  0  0
 16 54  1  0  0  0  0
 16102  1  0  0  0  0
 17 53  2  0  0  0  0
 18 57  1  0  0  0  0
 18 60  1  0  0  0  0
 19 58  1  0  0  0  0
 19 62  1  0  0  0  0
 20 59  2  0  0  0  0
 21 60  2  0  0  0  0
 22 62  2  0  0  0  0
 23 68  1  0  0  0  0
 23107  1  0  0  0  0
 24 70  1  0  0  0  0
 24108  1  0  0  0  0
 25 73  1  0  0  0  0
 25109  1  0  0  0  0
 26 74  1  0  0  0  0
 26110  1  0  0  0  0
 27 75  1  0  0  0  0
 27111  1  0  0  0  0
 28 76  1  0  0  0  0
 28112  1  0  0  0  0
 29 77  1  0  0  0  0
 29113  1  0  0  0  0
 30 78  1  0  0  0  0
 30114  1  0  0  0  0
 31 79  1  0  0  0  0
 31115  1  0  0  0  0
 32 33  1  0  0  0  0
 32 34  1  0  0  0  0
 32 38  1  0  0  0  0
 32 43  1  0  0  0  0
 33 36  1  0  0  0  0
 33 42  1  0  0  0  0
 34 35  1  0  0  0  0
 34 41  1  0  0  0  0
 34 80  1  0  0  0  0
 35 37  1  0  0  0  0
 36 39  1  0  0  0  0
 37 40  1  0  0  0  0
 38 40  1  0  0  0  0
 38 81  1  0  0  0  0
 38 82  1  0  0  0  0
 39 44  1  0  0  0  0
 39 83  1  0  0  0  0
 41 45  2  0  0  0  0
 41 47  1  0  0  0  0
 43 48  2  0  0  0  0
 44 46  1  0  0  0  0
 44 84  1  0  0  0  0
 45 49  1  0  0  0  0
 46 85  1  0  0  0  0
 46 86  1  0  0  0  0
 47 51  2  0  0  0  0
 47 53  1  0  0  0  0
 48 90  1  0  0  0  0
 48 91  1  0  0  0  0
 49 54  2  0  0  0  0
 50 52  1  0  0  0  0
 50 55  1  0  0  0  0
 50 92  1  0  0  0  0
 51 54  1  0  0  0  0
 51 93  1  0  0  0  0
 52 56  1  0  0  0  0
 52 95  1  0  0  0  0
 55 58  1  0  0  0  0
 55 96  1  0  0  0  0
 56 57  1  0  0  0  0
 56 97  1  0  0  0  0
 57 98  1  0  0  0  0
 58100  1  0  0  0  0
 58101  1  0  0  0  0
 59 61  1  0  0  0  0
 60 65  1  0  0  0  0
 61 63  1  0  0  0  0
 61 67  2  0  0  0  0
 62 64  1  0  0  0  0
 63 66  1  0  0  0  0
 63 68  2  0  0  0  0
 64 66  1  0  0  0  0
 64 69  2  0  0  0  0
 65 71  2  0  0  0  0
 65 72  1  0  0  0  0
 66 73  2  0  0  0  0
 67 70  1  0  0  0  0
 67103  1  0  0  0  0
 68 74  1  0  0  0  0
 69 75  1  0  0  0  0
 69104  1  0  0  0  0
 70 74  2  0  0  0  0
 71 78  1  0  0  0  0
 71105  1  0  0  0  0
 72 77  2  0  0  0  0
 72106  1  0  0  0  0
 73 76  1  0  0  0  0
 75 76  2  0  0  0  0
 77 79  1  0  0  0  0
 78 79  2  0  0  0  0
M  END
> <PUBCHEM_COMPOUND_CID>
44460330

> <PUBCHEM_COMPOUND_CANONICALIZED>
1

> <PUBCHEM_CACTVS_COMPLEXITY>
2570

> <PUBCHEM_CACTVS_HBOND_ACCEPTOR>
31

> <PUBCHEM_CACTVS_HBOND_DONOR>
15

> <PUBCHEM_CACTVS_ROTATABLE_BOND>
3

> <PUBCHEM_CACTVS_SUBSKEYS>
AAADcfB8PgAAAAAAAAAAAAAAAAAAASJEgAA0aNGDAAASAEgBVAAAGgAACAAAD1SwmAMwDoAABgCIAqDSCAICCAAkIAAAiAFGiMgdNzaGNR6ieSOl4BUPuYfK7vzvoAABCAAYQABAAAIQADCAAAAAAAAAAA==

> <PUBCHEM_IUPAC_OPENEYE_NAME>
(3,6a,10',11',12',15',16',17',31',32',36',37'-dodecahydroxy-2'-methylene-5,7',20',28',41'-pentaoxo-spiro[3,3a-dihydro-2H-furo[3,2-b]furan-6,39'-3,6,21,24,27,38,42-heptaoxanonacyclo[35.2.2.133,36.01,35.04,23.05,26.08,13.014,19.029,34]dotetraconta-8,10,12,14,16,18,29,31,33-nonaene]-25'-yl) 3,4,5-trihydroxybenzoate

> <PUBCHEM_IUPAC_CAS_NAME>
3,4,5-trihydroxybenzoic acid (3,6a,10',11',12',15',16',17',31',32',36',37'-dodecahydroxy-2'-methylene-5,7',20',28',41'-pentaoxo-25'-spiro[3,3a-dihydro-2H-furo[3,2-b]furan-6,39'-3,6,21,24,27,38,42-heptaoxanonacyclo[35.2.2.133,36.01,35.04,23.05,26.08,13.014,19.029,34]dotetraconta-8,10,12,14,16,18,29,31,33-nonaene]yl) ester

> <PUBCHEM_IUPAC_NAME_MARKUP>
(3,6<I>a</I>,10&apos;,11&apos;,12&apos;,15&apos;,16&apos;,17&apos;,31&apos;,32&apos;,36&apos;,37&apos;-dodecahydroxy-2&apos;-methylidene-5,7&apos;,20&apos;,28&apos;,41&apos;-pentaoxospiro[3,3<I>a</I>-dihydro-2<I>H</I>-furo[3,2-b]furan-6,39&apos;-3,6,21,24,27,38,42-heptaoxanonacyclo[35.2.2.1<SUP>33,36</SUP>.0<SUP>1,35</SUP>.0<SUP>4,23</SUP>.0<SUP>5,26</SUP>.0<SUP>8,13</SUP>.0<SUP>14,19</SUP>.0<SUP>29,34</SUP>]dotetraconta-8,10,12,14,16,18,29,31,33-nonaene]-25&apos;-yl) 3,4,5-trihydroxybenzoate

> <PUBCHEM_IUPAC_NAME>
(3,6a,10',11',12',15',16',17',31',32',36',37'-dodecahydroxy-2'-methylidene-5,7',20',28',41'-pentaoxospiro[3,3a-dihydro-2H-furo[3,2-b]furan-6,39'-3,6,21,24,27,38,42-heptaoxanonacyclo[35.2.2.133,36.01,35.04,23.05,26.08,13.014,19.029,34]dotetraconta-8,10,12,14,16,18,29,31,33-nonaene]-25'-yl) 3,4,5-trihydroxybenzoate

> <PUBCHEM_IUPAC_SYSTEMATIC_NAME>
[2'-methylidene-3,6a,10',11',12',15',16',17',31',32',36',37'-dodecakis(oxidanyl)-5,7',20',28',41'-pentakis(oxidanylidene)spiro[3,3a-dihydro-2H-furo[3,2-b]furan-6,39'-3,6,21,24,27,38,42-heptaoxanonacyclo[35.2.2.133,36.01,35.04,23.05,26.08,13.014,19.029,34]dotetraconta-8,10,12,14,16,18,29,31,33-nonaene]-25'-yl] 3,4,5-tris(oxidanyl)benzoate

> <PUBCHEM_IUPAC_TRADITIONAL_NAME>
3,4,5-trihydroxybenzoic acid (3,6a,10',11',12',15',16',17',31',32',36',37'-dodecahydroxy-5,7',20',28',41'-pentaketo-2'-methylene-spiro[3,3a-dihydro-2H-furo[3,2-b]furan-6,39'-3,6,21,24,27,38,42-heptaoxanonacyclo[35.2.2.133,36.01,35.04,23.05,26.08,13.014,19.029,34]dotetraconta-8,10,12,14,16,18,29,31,33-nonaene]-25'-yl) ester

> <PUBCHEM_IUPAC_INCHI>
InChI=1S/C48H36O31/c1-10-44-7-22(55)46(67,79-45(44)43(66)76-37-20(54)8-71-48(37,45)69)47(68)36(44)25-14(6-19(53)29(59)33(25)78-47)41(65)75-35-34-32(72-10)21(73-42(35)77-38(62)11-2-15(49)26(56)16(50)3-11)9-70-39(63)12-4-17(51)27(57)30(60)23(12)24-13(40(64)74-34)5-18(52)28(58)31(24)61/h2-6,20-21,32,34-37,42,49-54,56-61,67-69H,1,7-9H2

> <PUBCHEM_IUPAC_INCHIKEY>
OXVCKBRYFLCOBL-UHFFFAOYSA-N

> <PUBCHEM_XLOGP3_AA>
-1.8

> <PUBCHEM_EXACT_MASS>
1108.12405435

> <PUBCHEM_MOLECULAR_FORMULA>
C48H36O31

> <PUBCHEM_MOLECULAR_WEIGHT>
1108.8

> <PUBCHEM_SMILES>
C=C1C23CC(=O)C(C4(C2C5=C(O4)C(=C(C=C5C(=O)OC6C7C(O1)C(COC(=O)C8=CC(=C(C(=C8C9=C(C(=C(C=C9C(=O)O7)O)O)O)O)O)O)OC6OC(=O)C1=CC(=C(C(=C1)O)O)O)O)O)O)(OC31C(=O)OC2C1(OCC2O)O)O

> <PUBCHEM_OPENEYE_CAN_SMILES>
C=C1C23CC(=O)C(C4(C2C5=C(O4)C(=C(C=C5C(=O)OC6C7C(O1)C(COC(=O)C8=CC(=C(C(=C8C9=C(C(=C(C=C9C(=O)O7)O)O)O)O)O)O)OC6OC(=O)C1=CC(=C(C(=C1)O)O)O)O)O)O)(OC31C(=O)OC2C1(OCC2O)O)O

> <PUBCHEM_OPENEYE_ISO_SMILES>
C=C1C23CC(=O)C(C4(C2C5=C(O4)C(=C(C=C5C(=O)OC6C7C(O1)C(COC(=O)C8=CC(=C(C(=C8C9=C(C(=C(C=C9C(=O)O7)O)O)O)O)O)O)OC6OC(=O)C1=CC(=C(C(=C1)O)O)O)O)O)O)(OC31C(=O)OC2C1(OCC2O)O)O

> <PUBCHEM_CACTVS_TPSA>
498

> <PUBCHEM_MONOISOTOPIC_WEIGHT>
1108.12405435

> <PUBCHEM_TOTAL_CHARGE>
0

> <PUBCHEM_HEAVY_ATOM_COUNT>
79

> <PUBCHEM_ATOM_DEF_STEREO_COUNT>
0

> <PUBCHEM_ATOM_UDEF_STEREO_COUNT>
13

> <PUBCHEM_BOND_DEF_STEREO_COUNT>
0

> <PUBCHEM_BOND_UDEF_STEREO_COUNT>
0

> <PUBCHEM_ISOTOPIC_ATOM_COUNT>
0

> <PUBCHEM_COMPONENT_COUNT>
1

> <PUBCHEM_CACTVS_TAUTO_COUNT>
-1

> <PUBCHEM_COORDINATE_TYPE>
1
5
255

> <PUBCHEM_BONDANNOTATIONS>
44  11  3
56  12  3
52  15  3
57  18  3
39  3  3
32  38  3
33  42  3
34  41  3
37  40  3
41  45  8
41  47  8
45  49  8
47  51  8
49  54  8
35  5  3
51  54  8
55  58  3
36  6  3
61  63  8
61  67  8
63  68  8
64  66  8
64  69  8
65  71  8
65  72  8
66  73  8
67  70  8
68  74  8
69  75  8
70  74  8
71  78  8
72  77  8
73  76  8
75  76  8
77  79  8
78  79  8
50  8  3

$$$$
