49830360
  -OEChem-03202503172D

 58 62  0     0  0  0  0  0  0999 V2000
    4.6783   -1.3328    0.0000 S   0  0  0  0  0  0  0  0  0  0  0  0
   10.5028    4.1593    0.0000 F   0  0  0  0  0  0  0  0  0  0  0  0
    7.5673    3.5407    0.0000 O   0  0  0  0  0  0  0  0  0  0  0  0
    3.3660   -4.0669    0.0000 N   0  0  0  0  0  0  0  0  0  0  0  0
    2.0000   -0.0280    0.0000 N   0  0  0  0  0  0  0  0  0  0  0  0
    2.3660   -4.0669    0.0000 N   0  0  0  0  0  0  0  0  0  0  0  0
    2.8660    1.4720    0.0000 N   0  0  0  0  0  0  0  0  0  0  0  0
    5.9209    4.0788    0.0000 N   0  0  0  0  0  0  0  0  0  0  0  0
    7.2101    5.2355    0.0000 N   0  0  0  0  0  0  0  0  0  0  0  0
    3.7320   -0.0280    0.0000 C   0  0  0  0  0  0  0  0  0  0  0  0
    3.7320   -1.0280    0.0000 C   0  0  0  0  0  0  0  0  0  0  0  0
    2.8660   -1.5280    0.0000 C   0  0  0  0  0  0  0  0  0  0  0  0
    4.6783    0.2767    0.0000 C   0  0  0  0  0  0  0  0  0  0  0  0
    2.8660   -2.5280    0.0000 C   0  0  0  0  0  0  0  0  0  0  0  0
    4.9889    1.2272    0.0000 C   0  0  0  0  0  0  0  0  0  0  0  0
    2.8660    0.4720    0.0000 C   0  0  0  0  0  0  0  0  0  0  0  0
    3.9538   -4.8759    0.0000 C   0  0  0  0  0  0  0  0  0  0  0  0
    3.6750   -3.1158    0.0000 C   0  0  0  0  0  0  0  0  0  0  0  0
    5.2619   -0.5280    0.0000 C   0  0  0  0  0  0  0  0  0  0  0  0
    2.0000   -1.0280    0.0000 C   0  0  0  0  0  0  0  0  0  0  0  0
    2.0570   -3.1158    0.0000 C   0  0  0  0  0  0  0  0  0  0  0  0
    3.5471   -5.7895    0.0000 C   0  0  0  0  0  0  0  0  0  0  0  0
    5.9674    1.4334    0.0000 C   0  0  0  0  0  0  0  0  0  0  0  0
    4.3211    1.9715    0.0000 C   0  0  0  0  0  0  0  0  0  0  0  0
    5.6103    3.1282    0.0000 C   0  0  0  0  0  0  0  0  0  0  0  0
    6.2781    2.3840    0.0000 C   0  0  0  0  0  0  0  0  0  0  0  0
    4.6318    2.9220    0.0000 C   0  0  0  0  0  0  0  0  0  0  0  0
    4.1349   -6.5985    0.0000 C   0  0  0  0  0  0  0  0  0  0  0  0
    6.8994    4.2850    0.0000 C   0  0  0  0  0  0  0  0  0  0  0  0
    8.1886    5.4417    0.0000 C   0  0  0  0  0  0  0  0  0  0  0  0
    8.8564    4.6974    0.0000 C   0  0  0  0  0  0  0  0  0  0  0  0
    8.4993    6.3922    0.0000 C   0  0  0  0  0  0  0  0  0  0  0  0
    9.8349    4.9036    0.0000 C   0  0  0  0  0  0  0  0  0  0  0  0
    9.4778    6.5985    0.0000 C   0  0  0  0  0  0  0  0  0  0  0  0
   10.1456    5.8542    0.0000 C   0  0  0  0  0  0  0  0  0  0  0  0
    4.4678   -5.2226    0.0000 H   0  0  0  0  0  0  0  0  0  0  0  0
    4.3845   -4.4299    0.0000 H   0  0  0  0  0  0  0  0  0  0  0  0
    4.2647   -2.9242    0.0000 H   0  0  0  0  0  0  0  0  0  0  0  0
    5.8819   -0.5280    0.0000 H   0  0  0  0  0  0  0  0  0  0  0  0
    1.4631   -1.3380    0.0000 H   0  0  0  0  0  0  0  0  0  0  0  0
    1.4674   -2.9242    0.0000 H   0  0  0  0  0  0  0  0  0  0  0  0
    3.0331   -5.4428    0.0000 H   0  0  0  0  0  0  0  0  0  0  0  0
    3.1164   -6.2354    0.0000 H   0  0  0  0  0  0  0  0  0  0  0  0
    6.3815    0.9720    0.0000 H   0  0  0  0  0  0  0  0  0  0  0  0
    3.7144    1.8436    0.0000 H   0  0  0  0  0  0  0  0  0  0  0  0
    6.8848    2.5118    0.0000 H   0  0  0  0  0  0  0  0  0  0  0  0
    4.2177    3.3835    0.0000 H   0  0  0  0  0  0  0  0  0  0  0  0
    3.6333   -6.9629    0.0000 H   0  0  0  0  0  0  0  0  0  0  0  0
    4.4993   -7.1001    0.0000 H   0  0  0  0  0  0  0  0  0  0  0  0
    4.6364   -6.2340    0.0000 H   0  0  0  0  0  0  0  0  0  0  0  0
    2.3291    1.7820    0.0000 H   0  0  0  0  0  0  0  0  0  0  0  0
    3.4030    1.7820    0.0000 H   0  0  0  0  0  0  0  0  0  0  0  0
    5.5069    4.5402    0.0000 H   0  0  0  0  0  0  0  0  0  0  0  0
    6.7960    5.6970    0.0000 H   0  0  0  0  0  0  0  0  0  0  0  0
    8.6638    4.1081    0.0000 H   0  0  0  0  0  0  0  0  0  0  0  0
    8.0852    6.8537    0.0000 H   0  0  0  0  0  0  0  0  0  0  0  0
    9.6704    7.1878    0.0000 H   0  0  0  0  0  0  0  0  0  0  0  0
   10.7523    5.9820    0.0000 H   0  0  0  0  0  0  0  0  0  0  0  0
  1 11  1  0  0  0  0
  1 19  1  0  0  0  0
  2 33  1  0  0  0  0
  3 29  2  0  0  0  0
  4  6  1  0  0  0  0
  4 17  1  0  0  0  0
  4 18  1  0  0  0  0
  5 16  2  0  0  0  0
  5 20  1  0  0  0  0
  6 21  2  0  0  0  0
  7 16  1  0  0  0  0
  7 51  1  0  0  0  0
  7 52  1  0  0  0  0
  8 25  1  0  0  0  0
  8 29  1  0  0  0  0
  8 53  1  0  0  0  0
  9 29  1  0  0  0  0
  9 30  1  0  0  0  0
  9 54  1  0  0  0  0
 10 11  2  0  0  0  0
 10 13  1  0  0  0  0
 10 16  1  0  0  0  0
 11 12  1  0  0  0  0
 12 14  1  0  0  0  0
 12 20  2  0  0  0  0
 13 15  1  0  0  0  0
 13 19  2  0  0  0  0
 14 18  2  0  0  0  0
 14 21  1  0  0  0  0
 15 23  2  0  0  0  0
 15 24  1  0  0  0  0
 17 22  1  0  0  0  0
 17 36  1  0  0  0  0
 17 37  1  0  0  0  0
 18 38  1  0  0  0  0
 19 39  1  0  0  0  0
 20 40  1  0  0  0  0
 21 41  1  0  0  0  0
 22 28  1  0  0  0  0
 22 42  1  0  0  0  0
 22 43  1  0  0  0  0
 23 26  1  0  0  0  0
 23 44  1  0  0  0  0
 24 27  2  0  0  0  0
 24 45  1  0  0  0  0
 25 26  2  0  0  0  0
 25 27  1  0  0  0  0
 26 46  1  0  0  0  0
 27 47  1  0  0  0  0
 28 48  1  0  0  0  0
 28 49  1  0  0  0  0
 28 50  1  0  0  0  0
 30 31  2  0  0  0  0
 30 32  1  0  0  0  0
 31 33  1  0  0  0  0
 31 55  1  0  0  0  0
 32 34  2  0  0  0  0
 32 56  1  0  0  0  0
 33 35  2  0  0  0  0
 34 35  1  0  0  0  0
 34 57  1  0  0  0  0
 35 58  1  0  0  0  0
M  END
> <PUBCHEM_COMPOUND_CID>
49830360

> <PUBCHEM_COMPOUND_CANONICALIZED>
1

> <PUBCHEM_CACTVS_COMPLEXITY>
709

> <PUBCHEM_CACTVS_HBOND_ACCEPTOR>
6

> <PUBCHEM_CACTVS_HBOND_DONOR>
3

> <PUBCHEM_CACTVS_ROTATABLE_BOND>
6

> <PUBCHEM_CACTVS_SUBSKEYS>
AAADceB7oQBAAAAAAAAAAAAAAAAAAWJAAAA8YIAAAAAAAFgB/gAAHwQYAAAADAjFWgy/8dLIEAiuAjZndACThKkxijAY2DAoZJiIIOLg0dGEpAxonALoyCcQgMAOiAAAAAAAAAAQAAAAAAAAAAAAAAAAAA==

> <PUBCHEM_IUPAC_OPENEYE_NAME>
1-[4-[4-amino-7-(1-propylpyrazol-4-yl)thieno[3,2-c]pyridin-3-yl]phenyl]-3-(3-fluorophenyl)urea

> <PUBCHEM_IUPAC_CAS_NAME>
1-[4-[4-amino-7-(1-propyl-4-pyrazolyl)-3-thieno[3,2-c]pyridinyl]phenyl]-3-(3-fluorophenyl)urea

> <PUBCHEM_IUPAC_NAME_MARKUP>
1-[4-[4-amino-7-(1-propylpyrazol-4-yl)thieno[3,2-c]pyridin-3-yl]phenyl]-3-(3-fluorophenyl)urea

> <PUBCHEM_IUPAC_NAME>
1-[4-[4-amino-7-(1-propylpyrazol-4-yl)thieno[3,2-c]pyridin-3-yl]phenyl]-3-(3-fluorophenyl)urea

> <PUBCHEM_IUPAC_SYSTEMATIC_NAME>
1-[4-[4-azanyl-7-(1-propylpyrazol-4-yl)thieno[3,2-c]pyridin-3-yl]phenyl]-3-(3-fluorophenyl)urea

> <PUBCHEM_IUPAC_TRADITIONAL_NAME>
1-[4-[4-amino-7-(1-propylpyrazol-4-yl)thieno[3,2-c]pyridin-3-yl]phenyl]-3-(3-fluorophenyl)urea

> <PUBCHEM_IUPAC_INCHI>
InChI=1S/C26H23FN6OS/c1-2-10-33-14-17(12-30-33)21-13-29-25(28)23-22(15-35-24(21)23)16-6-8-19(9-7-16)31-26(34)32-20-5-3-4-18(27)11-20/h3-9,11-15H,2,10H2,1H3,(H2,28,29)(H2,31,32,34)

> <PUBCHEM_IUPAC_INCHIKEY>
XBYVOPRDASFDMY-UHFFFAOYSA-N

> <PUBCHEM_XLOGP3_AA>
4.6

> <PUBCHEM_EXACT_MASS>
486.16380871

> <PUBCHEM_MOLECULAR_FORMULA>
C26H23FN6OS

> <PUBCHEM_MOLECULAR_WEIGHT>
486.6

> <PUBCHEM_SMILES>
CCCN1C=C(C=N1)C2=CN=C(C3=C2SC=C3C4=CC=C(C=C4)NC(=O)NC5=CC(=CC=C5)F)N

> <PUBCHEM_OPENEYE_CAN_SMILES>
CCCN1C=C(C=N1)C2=CN=C(C3=C2SC=C3C4=CC=C(C=C4)NC(=O)NC5=CC(=CC=C5)F)N

> <PUBCHEM_OPENEYE_ISO_SMILES>
CCCN1C=C(C=N1)C2=CN=C(C3=C2SC=C3C4=CC=C(C=C4)NC(=O)NC5=CC(=CC=C5)F)N

> <PUBCHEM_CACTVS_TPSA>
126

> <PUBCHEM_MONOISOTOPIC_WEIGHT>
486.16380871

> <PUBCHEM_TOTAL_CHARGE>
0

> <PUBCHEM_HEAVY_ATOM_COUNT>
35

> <PUBCHEM_ATOM_DEF_STEREO_COUNT>
0

> <PUBCHEM_ATOM_UDEF_STEREO_COUNT>
0

> <PUBCHEM_BOND_DEF_STEREO_COUNT>
0

> <PUBCHEM_BOND_UDEF_STEREO_COUNT>
0

> <PUBCHEM_ISOTOPIC_ATOM_COUNT>
0

> <PUBCHEM_COMPONENT_COUNT>
1

> <PUBCHEM_CACTVS_TAUTO_COUNT>
-1

> <PUBCHEM_COORDINATE_TYPE>
1
5
255

> <PUBCHEM_BONDANNOTATIONS>
1  11  8
1  19  8
10  11  8
10  13  8
10  16  8
11  12  8
12  20  8
13  19  8
14  18  8
14  21  8
15  23  8
15  24  8
23  26  8
24  27  8
25  26  8
25  27  8
30  31  8
30  32  8
31  33  8
32  34  8
33  35  8
34  35  8
4  18  8
4  6  8
5  16  8
5  20  8
6  21  8

$$$$
