135611170
  -OEChem-03202504592D

 44 48  0     1  0  0  0  0  0999 V2000
    6.9964    1.0875    0.0000 S   0  0  0  0  0  0  0  0  0  0  0  0
    5.9795    3.4669    0.0000 O   0  0  0  0  0  0  0  0  0  0  0  0
    5.6115   -0.0340    0.0000 N   0  0  0  0  0  0  0  0  0  0  0  0
    5.5183    1.7456    0.0000 N   0  0  0  0  0  0  0  0  0  0  0  0
   11.4590    0.5474    0.0000 N   0  0  0  0  0  0  0  0  0  0  0  0
    3.8080   -0.7263    0.0000 C   0  0  1  0  0  0  0  0  0  0  0  0
    4.6170   -0.1385    0.0000 C   0  0  1  0  0  0  0  0  0  0  0  0
    3.7035    0.2683    0.0000 C   0  0  0  0  0  0  0  0  0  0  0  0
    3.4013   -1.6398    0.0000 C   0  0  0  0  0  0  0  0  0  0  0  0
    3.9890   -2.4488    0.0000 C   0  0  0  0  0  0  0  0  0  0  0  0
    2.4067   -1.7443    0.0000 C   0  0  0  0  0  0  0  0  0  0  0  0
    6.0183    0.8796    0.0000 C   0  0  0  0  0  0  0  0  0  0  0  0
    3.5823   -3.3624    0.0000 C   0  0  0  0  0  0  0  0  0  0  0  0
    2.0000   -2.6579    0.0000 C   0  0  0  0  0  0  0  0  0  0  0  0
    2.5878   -3.4669    0.0000 C   0  0  0  0  0  0  0  0  0  0  0  0
    7.1010    2.0820    0.0000 C   0  0  0  0  0  0  0  0  0  0  0  0
    6.1874    2.4888    0.0000 C   0  0  0  0  0  0  0  0  0  0  0  0
    7.9670    2.5820    0.0000 C   0  0  0  0  0  0  0  0  0  0  0  0
    8.8330    2.0820    0.0000 C   0  0  0  0  0  0  0  0  0  0  0  0
    9.6990    2.5820    0.0000 C   0  0  0  0  0  0  0  0  0  0  0  0
   10.5650    2.0820    0.0000 C   0  0  0  0  0  0  0  0  0  0  0  0
    8.8330    1.0820    0.0000 C   0  0  0  0  0  0  0  0  0  0  0  0
   10.5650    1.0820    0.0000 C   0  0  0  0  0  0  0  0  0  0  0  0
    9.6990    0.5820    0.0000 C   0  0  0  0  0  0  0  0  0  0  0  0
   11.4590    2.6167    0.0000 C   0  0  0  0  0  0  0  0  0  0  0  0
   12.3651    2.1028    0.0000 C   0  0  0  0  0  0  0  0  0  0  0  0
   12.3651    1.0612    0.0000 C   0  0  0  0  0  0  0  0  0  0  0  0
    3.1956   -0.6293    0.0000 H   0  0  0  0  0  0  0  0  0  0  0  0
    4.7140    0.4739    0.0000 H   0  0  0  0  0  0  0  0  0  0  0  0
    3.8535    0.8698    0.0000 H   0  0  0  0  0  0  0  0  0  0  0  0
    3.0850    0.3115    0.0000 H   0  0  0  0  0  0  0  0  0  0  0  0
    4.6056   -2.3840    0.0000 H   0  0  0  0  0  0  0  0  0  0  0  0
    2.0423   -1.2428    0.0000 H   0  0  0  0  0  0  0  0  0  0  0  0
    3.9467   -3.8640    0.0000 H   0  0  0  0  0  0  0  0  0  0  0  0
    1.3834   -2.7227    0.0000 H   0  0  0  0  0  0  0  0  0  0  0  0
    2.3356   -4.0333    0.0000 H   0  0  0  0  0  0  0  0  0  0  0  0
    4.9017    1.8104    0.0000 H   0  0  0  0  0  0  0  0  0  0  0  0
    7.9670    3.2020    0.0000 H   0  0  0  0  0  0  0  0  0  0  0  0
    9.6990    3.2020    0.0000 H   0  0  0  0  0  0  0  0  0  0  0  0
    8.2961    0.7720    0.0000 H   0  0  0  0  0  0  0  0  0  0  0  0
    9.6990   -0.0380    0.0000 H   0  0  0  0  0  0  0  0  0  0  0  0
   11.4518    3.2366    0.0000 H   0  0  0  0  0  0  0  0  0  0  0  0
   12.9008    2.4149    0.0000 H   0  0  0  0  0  0  0  0  0  0  0  0
   12.9008    0.7491    0.0000 H   0  0  0  0  0  0  0  0  0  0  0  0
  1 12  1  0  0  0  0
  1 16  1  0  0  0  0
  2 17  2  0  0  0  0
  7  3  1  1  0  0  0
  3 12  2  0  0  0  0
  4 12  1  0  0  0  0
  4 17  1  0  0  0  0
  4 37  1  0  0  0  0
  5 23  1  0  0  0  0
  5 27  2  0  0  0  0
  6  7  1  0  0  0  0
  6  8  1  0  0  0  0
  6  9  1  6  0  0  0
  6 28  1  0  0  0  0
  7  8  1  0  0  0  0
  7 29  1  0  0  0  0
  8 30  1  0  0  0  0
  8 31  1  0  0  0  0
  9 10  2  0  0  0  0
  9 11  1  0  0  0  0
 10 13  1  0  0  0  0
 10 32  1  0  0  0  0
 11 14  2  0  0  0  0
 11 33  1  0  0  0  0
 13 15  2  0  0  0  0
 13 34  1  0  0  0  0
 14 15  1  0  0  0  0
 14 35  1  0  0  0  0
 15 36  1  0  0  0  0
 16 17  1  0  0  0  0
 16 18  2  0  0  0  0
 18 19  1  0  0  0  0
 18 38  1  0  0  0  0
 19 20  2  0  0  0  0
 19 22  1  0  0  0  0
 20 21  1  0  0  0  0
 20 39  1  0  0  0  0
 21 23  2  0  0  0  0
 21 25  1  0  0  0  0
 22 24  2  0  0  0  0
 22 40  1  0  0  0  0
 23 24  1  0  0  0  0
 24 41  1  0  0  0  0
 25 26  2  0  0  0  0
 25 42  1  0  0  0  0
 26 27  1  0  0  0  0
 26 43  1  0  0  0  0
 27 44  1  0  0  0  0
M  END
> <PUBCHEM_COMPOUND_CID>
135611170

> <PUBCHEM_COMPOUND_CANONICALIZED>
1

> <PUBCHEM_CACTVS_COMPLEXITY>
639

> <PUBCHEM_CACTVS_HBOND_ACCEPTOR>
4

> <PUBCHEM_CACTVS_HBOND_DONOR>
1

> <PUBCHEM_CACTVS_ROTATABLE_BOND>
3

> <PUBCHEM_CACTVS_SUBSKEYS>
AAADceB7IABAAAAAAAAAAAAAGAAAAWAAAAA8YIAAAAAAAACx9AAAHgQQAAAADSjB3gQ9wPLIEAioAzV3dACCkCFxAjAJ2CA4ZNgIIOLAmZGEIAhggADIyYcQgMAOiAACAAACAAAQAAQAAAQAAAAAAAAAAA==

> <PUBCHEM_IUPAC_OPENEYE_NAME>
(5Z)-2-[(1R,2S)-2-phenylcyclopropyl]imino-5-(6-quinolylmethylene)thiazolidin-4-one

> <PUBCHEM_IUPAC_CAS_NAME>
(5Z)-2-[(1R,2S)-2-phenylcyclopropyl]imino-5-(6-quinolinylmethylidene)-4-thiazolidinone

> <PUBCHEM_IUPAC_NAME_MARKUP>
(5<I>Z</I>)-2-[(1<I>R</I>,2<I>S</I>)-2-phenylcyclopropyl]imino-5-(quinolin-6-ylmethylidene)-1,3-thiazolidin-4-one

> <PUBCHEM_IUPAC_NAME>
(5Z)-2-[(1R,2S)-2-phenylcyclopropyl]imino-5-(quinolin-6-ylmethylidene)-1,3-thiazolidin-4-one

> <PUBCHEM_IUPAC_SYSTEMATIC_NAME>
(5Z)-2-[(1R,2S)-2-phenylcyclopropyl]imino-5-(quinolin-6-ylmethylidene)-1,3-thiazolidin-4-one

> <PUBCHEM_IUPAC_TRADITIONAL_NAME>
(5Z)-2-[(1R,2S)-2-phenylcyclopropyl]imino-5-(6-quinolylmethylene)thiazolidin-4-one

> <PUBCHEM_IUPAC_INCHI>
InChI=1S/C22H17N3OS/c26-21-20(12-14-8-9-18-16(11-14)7-4-10-23-18)27-22(25-21)24-19-13-17(19)15-5-2-1-3-6-15/h1-12,17,19H,13H2,(H,24,25,26)/b20-12-/t17-,19+/m0/s1

> <PUBCHEM_IUPAC_INCHIKEY>
FITGAYHGSUWBQP-VBNMPBEYSA-N

> <PUBCHEM_XLOGP3_AA>
4.5

> <PUBCHEM_EXACT_MASS>
371.10923335

> <PUBCHEM_MOLECULAR_FORMULA>
C22H17N3OS

> <PUBCHEM_MOLECULAR_WEIGHT>
371.5

> <PUBCHEM_SMILES>
C1[C@H]([C@@H]1N=C2NC(=O)/C(=C/C3=CC4=C(C=C3)N=CC=C4)/S2)C5=CC=CC=C5

> <PUBCHEM_OPENEYE_CAN_SMILES>
C1C(C1N=C2NC(=O)C(=CC3=CC4=C(C=C3)N=CC=C4)S2)C5=CC=CC=C5

> <PUBCHEM_OPENEYE_ISO_SMILES>
C1[C@H]([C@@H]1N=C2NC(=O)/C(=C/C3=CC4=C(C=C3)N=CC=C4)/S2)C5=CC=CC=C5

> <PUBCHEM_CACTVS_TPSA>
79.7

> <PUBCHEM_MONOISOTOPIC_WEIGHT>
371.10923335

> <PUBCHEM_TOTAL_CHARGE>
0

> <PUBCHEM_HEAVY_ATOM_COUNT>
27

> <PUBCHEM_ATOM_DEF_STEREO_COUNT>
2

> <PUBCHEM_ATOM_UDEF_STEREO_COUNT>
0

> <PUBCHEM_BOND_DEF_STEREO_COUNT>
1

> <PUBCHEM_BOND_UDEF_STEREO_COUNT>
0

> <PUBCHEM_ISOTOPIC_ATOM_COUNT>
0

> <PUBCHEM_COMPONENT_COUNT>
1

> <PUBCHEM_CACTVS_TAUTO_COUNT>
-1

> <PUBCHEM_COORDINATE_TYPE>
1
5
255

> <PUBCHEM_BONDANNOTATIONS>
10  13  8
11  14  8
13  15  8
14  15  8
19  20  8
19  22  8
20  21  8
21  23  8
21  25  8
22  24  8
23  24  8
25  26  8
26  27  8
7  3  5
5  23  8
5  27  8
6  9  6
9  10  8
9  11  8

$$$$
