24952851
  -OEChem-03202502202D

 47 52  0     0  0  0  0  0  0999 V2000
    2.0000   -0.9058    0.0000 S   0  0  0  0  0  0  0  0  0  0  0  0
    7.3578    2.8355    0.0000 F   0  0  0  0  0  0  0  0  0  0  0  0
    8.0341   -1.0308    0.0000 N   0  0  0  0  0  0  0  0  0  0  0  0
    8.0341   -2.6402    0.0000 N   0  0  0  0  0  0  0  0  0  0  0  0
    9.6177   -1.8355    0.0000 N   0  0  0  0  0  0  0  0  0  0  0  0
    3.5762   -1.2423    0.0000 N   0  0  0  0  0  0  0  0  0  0  0  0
    3.4071    0.3669    0.0000 N   0  0  0  0  0  0  0  0  0  0  0  0
    9.3232    0.1259    0.0000 C   0  0  0  0  0  0  0  0  0  0  0  0
   10.2737   -0.1847    0.0000 C   0  0  0  0  0  0  0  0  0  0  0  0
   10.0675    0.7938    0.0000 C   0  0  0  0  0  0  0  0  0  0  0  0
    8.3447   -0.0803    0.0000 C   0  0  0  0  0  0  0  0  0  0  0  0
    7.0878   -1.3355    0.0000 C   0  0  0  0  0  0  0  0  0  0  0  0
    8.6177   -1.8355    0.0000 C   0  0  0  0  0  0  0  0  0  0  0  0
    7.0878   -2.3355    0.0000 C   0  0  0  0  0  0  0  0  0  0  0  0
    6.2218   -0.8355    0.0000 C   0  0  0  0  0  0  0  0  0  0  0  0
    5.3558   -1.3355    0.0000 C   0  0  0  0  0  0  0  0  0  0  0  0
    6.2218   -2.8355    0.0000 C   0  0  0  0  0  0  0  0  0  0  0  0
    4.4898   -0.8355    0.0000 C   0  0  0  0  0  0  0  0  0  0  0  0
    5.3558   -2.3355    0.0000 C   0  0  0  0  0  0  0  0  0  0  0  0
    4.3852    0.1590    0.0000 C   0  0  0  0  0  0  0  0  0  0  0  0
    2.9071   -0.4991    0.0000 C   0  0  0  0  0  0  0  0  0  0  0  0
    5.1284    0.8281    0.0000 C   0  0  0  0  0  0  0  0  0  0  0  0
    3.0769   -2.1019    0.0000 C   0  0  0  0  0  0  0  0  0  0  0  0
    2.1048   -1.8943    0.0000 C   0  0  0  0  0  0  0  0  0  0  0  0
    6.0794    0.5191    0.0000 C   0  0  0  0  0  0  0  0  0  0  0  0
    4.9205    1.8063    0.0000 C   0  0  0  0  0  0  0  0  0  0  0  0
    6.8226    1.1882    0.0000 C   0  0  0  0  0  0  0  0  0  0  0  0
    5.6636    2.4754    0.0000 C   0  0  0  0  0  0  0  0  0  0  0  0
    6.6147    2.1664    0.0000 C   0  0  0  0  0  0  0  0  0  0  0  0
    9.2897   -0.4931    0.0000 H   0  0  0  0  0  0  0  0  0  0  0  0
   10.1864   -0.7985    0.0000 H   0  0  0  0  0  0  0  0  0  0  0  0
   10.8934   -0.1641    0.0000 H   0  0  0  0  0  0  0  0  0  0  0  0
   10.6428    1.0250    0.0000 H   0  0  0  0  0  0  0  0  0  0  0  0
    9.7399    1.3202    0.0000 H   0  0  0  0  0  0  0  0  0  0  0  0
    8.3242    0.5394    0.0000 H   0  0  0  0  0  0  0  0  0  0  0  0
    7.7309    0.0071    0.0000 H   0  0  0  0  0  0  0  0  0  0  0  0
    6.2218   -0.2155    0.0000 H   0  0  0  0  0  0  0  0  0  0  0  0
    6.2218   -3.4555    0.0000 H   0  0  0  0  0  0  0  0  0  0  0  0
    4.8188   -2.6455    0.0000 H   0  0  0  0  0  0  0  0  0  0  0  0
    9.9277   -2.3725    0.0000 H   0  0  0  0  0  0  0  0  0  0  0  0
    9.9277   -1.2986    0.0000 H   0  0  0  0  0  0  0  0  0  0  0  0
    3.3281   -2.6687    0.0000 H   0  0  0  0  0  0  0  0  0  0  0  0
    1.6440   -2.3092    0.0000 H   0  0  0  0  0  0  0  0  0  0  0  0
    6.2083   -0.0873    0.0000 H   0  0  0  0  0  0  0  0  0  0  0  0
    4.3308    1.9979    0.0000 H   0  0  0  0  0  0  0  0  0  0  0  0
    7.4122    0.9967    0.0000 H   0  0  0  0  0  0  0  0  0  0  0  0
    5.5347    3.0819    0.0000 H   0  0  0  0  0  0  0  0  0  0  0  0
  1 21  1  0  0  0  0
  1 24  1  0  0  0  0
  2 29  1  0  0  0  0
  3 11  1  0  0  0  0
  3 12  1  0  0  0  0
  3 13  1  0  0  0  0
  4 13  2  0  0  0  0
  4 14  1  0  0  0  0
  5 13  1  0  0  0  0
  5 40  1  0  0  0  0
  5 41  1  0  0  0  0
  6 18  1  0  0  0  0
  6 21  1  0  0  0  0
  6 23  1  0  0  0  0
  7 20  1  0  0  0  0
  7 21  2  0  0  0  0
  8  9  1  0  0  0  0
  8 10  1  0  0  0  0
  8 11  1  0  0  0  0
  8 30  1  0  0  0  0
  9 10  1  0  0  0  0
  9 31  1  0  0  0  0
  9 32  1  0  0  0  0
 10 33  1  0  0  0  0
 10 34  1  0  0  0  0
 11 35  1  0  0  0  0
 11 36  1  0  0  0  0
 12 14  2  0  0  0  0
 12 15  1  0  0  0  0
 14 17  1  0  0  0  0
 15 16  2  0  0  0  0
 15 37  1  0  0  0  0
 16 18  1  0  0  0  0
 16 19  1  0  0  0  0
 17 19  2  0  0  0  0
 17 38  1  0  0  0  0
 18 20  2  0  0  0  0
 19 39  1  0  0  0  0
 20 22  1  0  0  0  0
 22 25  2  0  0  0  0
 22 26  1  0  0  0  0
 23 24  2  0  0  0  0
 23 42  1  0  0  0  0
 24 43  1  0  0  0  0
 25 27  1  0  0  0  0
 25 44  1  0  0  0  0
 26 28  2  0  0  0  0
 26 45  1  0  0  0  0
 27 29  2  0  0  0  0
 27 46  1  0  0  0  0
 28 29  1  0  0  0  0
 28 47  1  0  0  0  0
M  END
> <PUBCHEM_COMPOUND_CID>
24952851

> <PUBCHEM_COMPOUND_CANONICALIZED>
1

> <PUBCHEM_CACTVS_COMPLEXITY>
598

> <PUBCHEM_CACTVS_HBOND_ACCEPTOR>
5

> <PUBCHEM_CACTVS_HBOND_DONOR>
1

> <PUBCHEM_CACTVS_ROTATABLE_BOND>
4

> <PUBCHEM_CACTVS_SUBSKEYS>
AAADceB7gQBAAAAAAAAAAAAAGAAAAWLFgAAwYAAAAAAWAFgB/gAAHQQQAAAADQjFXgy90bdMGAikAzRnZACC8K1xGrhJ2Cw4dJiIaOLAmZGUIAhogALIyCcQgMAOCAAAQAAAACAQAACAAAAAQAAAAAAAAA==

> <PUBCHEM_IUPAC_OPENEYE_NAME>
1-(cyclopropylmethyl)-6-[6-(4-fluorophenyl)imidazo[2,1-b]thiazol-5-yl]benzimidazol-2-amine

> <PUBCHEM_IUPAC_CAS_NAME>
1-(cyclopropylmethyl)-6-[6-(4-fluorophenyl)-5-imidazo[2,1-b]thiazolyl]-2-benzimidazolamine

> <PUBCHEM_IUPAC_NAME_MARKUP>
1-(cyclopropylmethyl)-6-[6-(4-fluorophenyl)imidazo[2,1-b][1,3]thiazol-5-yl]benzimidazol-2-amine

> <PUBCHEM_IUPAC_NAME>
1-(cyclopropylmethyl)-6-[6-(4-fluorophenyl)imidazo[2,1-b][1,3]thiazol-5-yl]benzimidazol-2-amine

> <PUBCHEM_IUPAC_SYSTEMATIC_NAME>
1-(cyclopropylmethyl)-6-[6-(4-fluorophenyl)imidazo[2,1-b][1,3]thiazol-5-yl]benzimidazol-2-amine

> <PUBCHEM_IUPAC_TRADITIONAL_NAME>
[1-(cyclopropylmethyl)-6-[6-(4-fluorophenyl)imidazo[2,1-b]thiazol-5-yl]benzimidazol-2-yl]amine

> <PUBCHEM_IUPAC_INCHI>
InChI=1S/C22H18FN5S/c23-16-6-3-14(4-7-16)19-20(27-9-10-29-22(27)26-19)15-5-8-17-18(11-15)28(21(24)25-17)12-13-1-2-13/h3-11,13H,1-2,12H2,(H2,24,25)

> <PUBCHEM_IUPAC_INCHIKEY>
MZIOLOXGGOLJMJ-UHFFFAOYSA-N

> <PUBCHEM_XLOGP3_AA>
5.1

> <PUBCHEM_EXACT_MASS>
403.12669493

> <PUBCHEM_MOLECULAR_FORMULA>
C22H18FN5S

> <PUBCHEM_MOLECULAR_WEIGHT>
403.5

> <PUBCHEM_SMILES>
C1CC1CN2C3=C(C=CC(=C3)C4=C(N=C5N4C=CS5)C6=CC=C(C=C6)F)N=C2N

> <PUBCHEM_OPENEYE_CAN_SMILES>
C1CC1CN2C3=C(C=CC(=C3)C4=C(N=C5N4C=CS5)C6=CC=C(C=C6)F)N=C2N

> <PUBCHEM_OPENEYE_ISO_SMILES>
C1CC1CN2C3=C(C=CC(=C3)C4=C(N=C5N4C=CS5)C6=CC=C(C=C6)F)N=C2N

> <PUBCHEM_CACTVS_TPSA>
89.4

> <PUBCHEM_MONOISOTOPIC_WEIGHT>
403.12669493

> <PUBCHEM_TOTAL_CHARGE>
0

> <PUBCHEM_HEAVY_ATOM_COUNT>
29

> <PUBCHEM_ATOM_DEF_STEREO_COUNT>
0

> <PUBCHEM_ATOM_UDEF_STEREO_COUNT>
0

> <PUBCHEM_BOND_DEF_STEREO_COUNT>
0

> <PUBCHEM_BOND_UDEF_STEREO_COUNT>
0

> <PUBCHEM_ISOTOPIC_ATOM_COUNT>
0

> <PUBCHEM_COMPONENT_COUNT>
1

> <PUBCHEM_CACTVS_TAUTO_COUNT>
-1

> <PUBCHEM_COORDINATE_TYPE>
1
5
255

> <PUBCHEM_BONDANNOTATIONS>
1  21  8
1  24  8
12  14  8
12  15  8
14  17  8
15  16  8
16  19  8
17  19  8
18  20  8
22  25  8
22  26  8
23  24  8
25  27  8
26  28  8
27  29  8
28  29  8
3  12  8
3  13  8
4  13  8
4  14  8
6  18  8
6  21  8
6  23  8
7  20  8
7  21  8

$$$$
