44570884
  -OEChem-03202506342D

 59 63  0     0  0  0  0  0  0999 V2000
    7.7540   -1.6101    0.0000 S   0  0  0  0  0  0  0  0  0  0  0  0
   11.3376    0.9267    0.0000 O   0  0  0  0  0  0  0  0  0  0  0  0
    5.9418    1.1946    0.0000 N   0  0  0  0  0  0  0  0  0  0  0  0
    9.8376   -3.4035    0.0000 N   0  0  0  0  0  0  0  0  0  0  0  0
    2.6067    3.3617    0.0000 N   0  0  0  0  0  0  0  0  0  0  0  0
    5.9418   -1.8054    0.0000 N   0  0  0  0  0  0  0  0  0  0  0  0
    3.3437    0.6946    0.0000 N   0  0  0  0  0  0  0  0  0  0  0  0
    6.8078   -0.3054    0.0000 C   0  0  0  0  0  0  0  0  0  0  0  0
    9.3376   -0.8054    0.0000 C   0  0  0  0  0  0  0  0  0  0  0  0
    9.8376   -1.6714    0.0000 C   0  0  0  0  0  0  0  0  0  0  0  0
    8.3376   -0.8054    0.0000 C   0  0  0  0  0  0  0  0  0  0  0  0
    5.0757    1.6946    0.0000 C   0  0  0  0  0  0  0  0  0  0  0  0
    5.0757    2.6946    0.0000 C   0  0  0  0  0  0  0  0  0  0  0  0
    5.9418    0.1946    0.0000 C   0  0  0  0  0  0  0  0  0  0  0  0
    4.2097    3.1946    0.0000 C   0  0  0  0  0  0  0  0  0  0  0  0
    9.3376   -2.5374    0.0000 C   0  0  0  0  0  0  0  0  0  0  0  0
    7.7540   -0.0007    0.0000 C   0  0  0  0  0  0  0  0  0  0  0  0
    3.3437    2.6946    0.0000 C   0  0  0  0  0  0  0  0  0  0  0  0
    6.8078   -1.3054    0.0000 C   0  0  0  0  0  0  0  0  0  0  0  0
    4.2097    1.1946    0.0000 C   0  0  0  0  0  0  0  0  0  0  0  0
    9.8376    0.0606    0.0000 C   0  0  0  0  0  0  0  0  0  0  0  0
    3.3437    1.6946    0.0000 C   0  0  0  0  0  0  0  0  0  0  0  0
   10.8376   -1.6714    0.0000 C   0  0  0  0  0  0  0  0  0  0  0  0
    5.0757   -0.3054    0.0000 C   0  0  0  0  0  0  0  0  0  0  0  0
    4.0005    4.1664    0.0000 C   0  0  0  0  0  0  0  0  0  0  0  0
    5.9418    3.1946    0.0000 C   0  0  0  0  0  0  0  0  0  0  0  0
   10.8376    0.0606    0.0000 C   0  0  0  0  0  0  0  0  0  0  0  0
    3.0118    4.2695    0.0000 C   0  0  0  0  0  0  0  0  0  0  0  0
   11.3376   -0.8054    0.0000 C   0  0  0  0  0  0  0  0  0  0  0  0
    5.0757   -1.3054    0.0000 C   0  0  0  0  0  0  0  0  0  0  0  0
    9.3376   -4.2695    0.0000 C   0  0  0  0  0  0  0  0  0  0  0  0
   10.8376   -3.4035    0.0000 C   0  0  0  0  0  0  0  0  0  0  0  0
    4.2097    0.1946    0.0000 C   0  0  0  0  0  0  0  0  0  0  0  0
   12.3376    0.9267    0.0000 C   0  0  0  0  0  0  0  0  0  0  0  0
    8.8627   -2.1389    0.0000 H   0  0  0  0  0  0  0  0  0  0  0  0
    8.8627   -2.9360    0.0000 H   0  0  0  0  0  0  0  0  0  0  0  0
    7.9466    0.5887    0.0000 H   0  0  0  0  0  0  0  0  0  0  0  0
    6.4787    1.5046    0.0000 H   0  0  0  0  0  0  0  0  0  0  0  0
    4.2097    0.5746    0.0000 H   0  0  0  0  0  0  0  0  0  0  0  0
    9.5276    0.5976    0.0000 H   0  0  0  0  0  0  0  0  0  0  0  0
    2.8068    1.3846    0.0000 H   0  0  0  0  0  0  0  0  0  0  0  0
   11.1476   -2.2083    0.0000 H   0  0  0  0  0  0  0  0  0  0  0  0
    4.4146    4.6279    0.0000 H   0  0  0  0  0  0  0  0  0  0  0  0
    6.2518    2.6577    0.0000 H   0  0  0  0  0  0  0  0  0  0  0  0
    6.4787    3.5046    0.0000 H   0  0  0  0  0  0  0  0  0  0  0  0
    5.6318    3.7316    0.0000 H   0  0  0  0  0  0  0  0  0  0  0  0
    2.0000    3.2338    0.0000 H   0  0  0  0  0  0  0  0  0  0  0  0
    2.7018    4.8064    0.0000 H   0  0  0  0  0  0  0  0  0  0  0  0
   11.9576   -0.8054    0.0000 H   0  0  0  0  0  0  0  0  0  0  0  0
    4.5388   -1.6154    0.0000 H   0  0  0  0  0  0  0  0  0  0  0  0
    8.8007   -3.9595    0.0000 H   0  0  0  0  0  0  0  0  0  0  0  0
    9.0276   -4.8064    0.0000 H   0  0  0  0  0  0  0  0  0  0  0  0
    9.8746   -4.5795    0.0000 H   0  0  0  0  0  0  0  0  0  0  0  0
   10.8376   -4.0235    0.0000 H   0  0  0  0  0  0  0  0  0  0  0  0
   11.4576   -3.4035    0.0000 H   0  0  0  0  0  0  0  0  0  0  0  0
   10.8376   -2.7835    0.0000 H   0  0  0  0  0  0  0  0  0  0  0  0
   12.3376    0.3067    0.0000 H   0  0  0  0  0  0  0  0  0  0  0  0
   12.9576    0.9267    0.0000 H   0  0  0  0  0  0  0  0  0  0  0  0
   12.3376    1.5467    0.0000 H   0  0  0  0  0  0  0  0  0  0  0  0
  1 11  1  0  0  0  0
  1 19  1  0  0  0  0
  2 27  1  0  0  0  0
  2 34  1  0  0  0  0
  3 12  1  0  0  0  0
  3 14  1  0  0  0  0
  3 38  1  0  0  0  0
  4 16  1  0  0  0  0
  4 31  1  0  0  0  0
  4 32  1  0  0  0  0
  5 18  1  0  0  0  0
  5 28  1  0  0  0  0
  5 47  1  0  0  0  0
  6 19  2  0  0  0  0
  6 30  1  0  0  0  0
  7 33  3  0  0  0  0
  8 14  2  0  0  0  0
  8 17  1  0  0  0  0
  8 19  1  0  0  0  0
  9 10  2  0  0  0  0
  9 11  1  0  0  0  0
  9 21  1  0  0  0  0
 10 16  1  0  0  0  0
 10 23  1  0  0  0  0
 11 17  2  0  0  0  0
 12 13  2  0  0  0  0
 12 20  1  0  0  0  0
 13 15  1  0  0  0  0
 13 26  1  0  0  0  0
 14 24  1  0  0  0  0
 15 18  2  0  0  0  0
 15 25  1  0  0  0  0
 16 35  1  0  0  0  0
 16 36  1  0  0  0  0
 17 37  1  0  0  0  0
 18 22  1  0  0  0  0
 20 22  2  0  0  0  0
 20 39  1  0  0  0  0
 21 27  2  0  0  0  0
 21 40  1  0  0  0  0
 22 41  1  0  0  0  0
 23 29  2  0  0  0  0
 23 42  1  0  0  0  0
 24 30  2  0  0  0  0
 24 33  1  0  0  0  0
 25 28  2  0  0  0  0
 25 43  1  0  0  0  0
 26 44  1  0  0  0  0
 26 45  1  0  0  0  0
 26 46  1  0  0  0  0
 27 29  1  0  0  0  0
 28 48  1  0  0  0  0
 29 49  1  0  0  0  0
 30 50  1  0  0  0  0
 31 51  1  0  0  0  0
 31 52  1  0  0  0  0
 31 53  1  0  0  0  0
 32 54  1  0  0  0  0
 32 55  1  0  0  0  0
 32 56  1  0  0  0  0
 34 57  1  0  0  0  0
 34 58  1  0  0  0  0
 34 59  1  0  0  0  0
M  END
> <PUBCHEM_COMPOUND_CID>
44570884

> <PUBCHEM_COMPOUND_CANONICALIZED>
1

> <PUBCHEM_CACTVS_COMPLEXITY>
742

> <PUBCHEM_CACTVS_HBOND_ACCEPTOR>
6

> <PUBCHEM_CACTVS_HBOND_DONOR>
2

> <PUBCHEM_CACTVS_ROTATABLE_BOND>
6

> <PUBCHEM_CACTVS_SUBSKEYS>
AAADceB7oABAAAAAAAAAAAAAAAAAAWJAAAA8YIAAAAAAAFgB/gAAHgQQAAAADAzB3gY+x/PJlAi0BzRnRACj2KBxKjhI2bg+bJgMpuLk8duENCxk0BHo6A+Q0PIOoACBQAASAABAAQKAACQAAAAAAAAAAA==

> <PUBCHEM_IUPAC_OPENEYE_NAME>
2-[2-[(dimethylamino)methyl]-5-methoxy-phenyl]-4-[(4-methyl-1H-indol-5-yl)amino]thieno[2,3-b]pyridine-5-carbonitrile

> <PUBCHEM_IUPAC_CAS_NAME>
2-[2-[(dimethylamino)methyl]-5-methoxyphenyl]-4-[(4-methyl-1H-indol-5-yl)amino]-5-thieno[2,3-b]pyridinecarbonitrile

> <PUBCHEM_IUPAC_NAME_MARKUP>
2-[2-[(dimethylamino)methyl]-5-methoxyphenyl]-4-[(4-methyl-1<I>H</I>-indol-5-yl)amino]thieno[2,3-b]pyridine-5-carbonitrile

> <PUBCHEM_IUPAC_NAME>
2-[2-[(dimethylamino)methyl]-5-methoxyphenyl]-4-[(4-methyl-1H-indol-5-yl)amino]thieno[2,3-b]pyridine-5-carbonitrile

> <PUBCHEM_IUPAC_SYSTEMATIC_NAME>
2-[2-[(dimethylamino)methyl]-5-methoxy-phenyl]-4-[(4-methyl-1H-indol-5-yl)amino]thieno[2,3-b]pyridine-5-carbonitrile

> <PUBCHEM_IUPAC_TRADITIONAL_NAME>
2-[2-[(dimethylamino)methyl]-5-methoxy-phenyl]-4-[(4-methyl-1H-indol-5-yl)amino]thieno[2,3-b]pyridine-5-carbonitrile

> <PUBCHEM_IUPAC_INCHI>
InChI=1S/C27H25N5OS/c1-16-20-9-10-29-24(20)8-7-23(16)31-26-18(13-28)14-30-27-22(26)12-25(34-27)21-11-19(33-4)6-5-17(21)15-32(2)3/h5-12,14,29H,15H2,1-4H3,(H,30,31)

> <PUBCHEM_IUPAC_INCHIKEY>
ZZARJEJPLRJJQO-UHFFFAOYSA-N

> <PUBCHEM_XLOGP3_AA>
6

> <PUBCHEM_EXACT_MASS>
467.17798161

> <PUBCHEM_MOLECULAR_FORMULA>
C27H25N5OS

> <PUBCHEM_MOLECULAR_WEIGHT>
467.6

> <PUBCHEM_SMILES>
CC1=C(C=CC2=C1C=CN2)NC3=C4C=C(SC4=NC=C3C#N)C5=C(C=CC(=C5)OC)CN(C)C

> <PUBCHEM_OPENEYE_CAN_SMILES>
CC1=C(C=CC2=C1C=CN2)NC3=C4C=C(SC4=NC=C3C#N)C5=C(C=CC(=C5)OC)CN(C)C

> <PUBCHEM_OPENEYE_ISO_SMILES>
CC1=C(C=CC2=C1C=CN2)NC3=C4C=C(SC4=NC=C3C#N)C5=C(C=CC(=C5)OC)CN(C)C

> <PUBCHEM_CACTVS_TPSA>
105

> <PUBCHEM_MONOISOTOPIC_WEIGHT>
467.17798161

> <PUBCHEM_TOTAL_CHARGE>
0

> <PUBCHEM_HEAVY_ATOM_COUNT>
34

> <PUBCHEM_ATOM_DEF_STEREO_COUNT>
0

> <PUBCHEM_ATOM_UDEF_STEREO_COUNT>
0

> <PUBCHEM_BOND_DEF_STEREO_COUNT>
0

> <PUBCHEM_BOND_UDEF_STEREO_COUNT>
0

> <PUBCHEM_ISOTOPIC_ATOM_COUNT>
0

> <PUBCHEM_COMPONENT_COUNT>
1

> <PUBCHEM_CACTVS_TAUTO_COUNT>
-1

> <PUBCHEM_COORDINATE_TYPE>
1
5
255

> <PUBCHEM_BONDANNOTATIONS>
1  11  8
1  19  8
10  23  8
11  17  8
12  13  8
12  20  8
13  15  8
14  24  8
15  18  8
15  25  8
18  22  8
20  22  8
21  27  8
23  29  8
24  30  8
25  28  8
27  29  8
5  18  8
5  28  8
6  19  8
6  30  8
8  14  8
8  17  8
8  19  8
9  10  8
9  21  8

$$$$
