49830731
  -OEChem-03202501582D

 29 31  0     0  0  0  0  0  0999 V2000
    5.0836   -1.9344    0.0000 S   0  0  0  0  0  0  0  0  0  0  0  0
    8.9372    0.0952    0.0000 F   0  0  0  0  0  0  0  0  0  0  0  0
    3.0000   -0.2636    0.0000 O   0  0  0  0  0  0  0  0  0  0  0  0
    7.5687   -1.1296    0.0000 N   0  0  0  0  0  0  0  0  0  0  0  0
    6.9809   -1.9386    0.0000 N   0  0  0  0  0  0  0  0  0  0  0  0
    3.0000   -1.9956    0.0000 N   0  0  0  0  0  0  0  0  0  0  0  0
    6.0298   -0.6296    0.0000 C   0  0  0  0  0  0  0  0  0  0  0  0
    6.9809   -0.3206    0.0000 C   0  0  0  0  0  0  0  0  0  0  0  0
    6.0298   -1.6296    0.0000 C   0  0  0  0  0  0  0  0  0  0  0  0
    7.2899    0.6305    0.0000 C   0  0  0  0  0  0  0  0  0  0  0  0
    5.0836   -0.3249    0.0000 C   0  0  0  0  0  0  0  0  0  0  0  0
    4.5000   -1.1296    0.0000 C   0  0  0  0  0  0  0  0  0  0  0  0
    8.2680    0.8384    0.0000 C   0  0  0  0  0  0  0  0  0  0  0  0
    6.6208    1.3736    0.0000 C   0  0  0  0  0  0  0  0  0  0  0  0
    3.5000   -1.1296    0.0000 C   0  0  0  0  0  0  0  0  0  0  0  0
    8.5771    1.7894    0.0000 C   0  0  0  0  0  0  0  0  0  0  0  0
    6.9298    2.3247    0.0000 C   0  0  0  0  0  0  0  0  0  0  0  0
    7.9079    2.5326    0.0000 C   0  0  0  0  0  0  0  0  0  0  0  0
    2.0000   -1.9956    0.0000 C   0  0  0  0  0  0  0  0  0  0  0  0
    4.8910    0.2644    0.0000 H   0  0  0  0  0  0  0  0  0  0  0  0
    8.1887   -1.1296    0.0000 H   0  0  0  0  0  0  0  0  0  0  0  0
    6.0143    1.2447    0.0000 H   0  0  0  0  0  0  0  0  0  0  0  0
    9.1835    1.9183    0.0000 H   0  0  0  0  0  0  0  0  0  0  0  0
    6.5149    2.7854    0.0000 H   0  0  0  0  0  0  0  0  0  0  0  0
    8.0995    3.1222    0.0000 H   0  0  0  0  0  0  0  0  0  0  0  0
    3.3100   -2.5326    0.0000 H   0  0  0  0  0  0  0  0  0  0  0  0
    2.0000   -1.3756    0.0000 H   0  0  0  0  0  0  0  0  0  0  0  0
    1.3800   -1.9956    0.0000 H   0  0  0  0  0  0  0  0  0  0  0  0
    2.0000   -2.6156    0.0000 H   0  0  0  0  0  0  0  0  0  0  0  0
  1  9  1  0  0  0  0
  1 12  1  0  0  0  0
  2 13  1  0  0  0  0
  3 15  2  0  0  0  0
  4  5  1  0  0  0  0
  4  8  1  0  0  0  0
  4 21  1  0  0  0  0
  5  9  2  0  0  0  0
  6 15  1  0  0  0  0
  6 19  1  0  0  0  0
  6 26  1  0  0  0  0
  7  8  2  0  0  0  0
  7  9  1  0  0  0  0
  7 11  1  0  0  0  0
  8 10  1  0  0  0  0
 10 13  1  0  0  0  0
 10 14  2  0  0  0  0
 11 12  2  0  0  0  0
 11 20  1  0  0  0  0
 12 15  1  0  0  0  0
 13 16  2  0  0  0  0
 14 17  1  0  0  0  0
 14 22  1  0  0  0  0
 16 18  1  0  0  0  0
 16 23  1  0  0  0  0
 17 18  2  0  0  0  0
 17 24  1  0  0  0  0
 18 25  1  0  0  0  0
 19 27  1  0  0  0  0
 19 28  1  0  0  0  0
 19 29  1  0  0  0  0
M  END
> <PUBCHEM_COMPOUND_CID>
49830731

> <PUBCHEM_COMPOUND_CANONICALIZED>
1

> <PUBCHEM_CACTVS_COMPLEXITY>
357

> <PUBCHEM_CACTVS_HBOND_ACCEPTOR>
4

> <PUBCHEM_CACTVS_HBOND_DONOR>
2

> <PUBCHEM_CACTVS_ROTATABLE_BOND>
2

> <PUBCHEM_CACTVS_SUBSKEYS>
AAADccBzIQBAAAAAAAAAAAAAAAAAAWJAAAAwAAAAAAAWAAAB/AAAHwQYAAAADAiB3gwygdLjAAiuAyVyUACTBIBkCBBYubkoRNgIILKg1dGEpQxgigAoyYcYicCeAAAAAAAAAAAAAAAAAAAAAAAAAAAAAA==

> <PUBCHEM_IUPAC_OPENEYE_NAME>
3-(2-fluorophenyl)-N-methyl-2H-thieno[2,3-c]pyrazole-5-carboxamide

> <PUBCHEM_IUPAC_CAS_NAME>
3-(2-fluorophenyl)-N-methyl-2H-thieno[2,3-c]pyrazole-5-carboxamide

> <PUBCHEM_IUPAC_NAME_MARKUP>
3-(2-fluorophenyl)-<I>N</I>-methyl-2<I>H</I>-thieno[2,3-c]pyrazole-5-carboxamide

> <PUBCHEM_IUPAC_NAME>
3-(2-fluorophenyl)-N-methyl-2H-thieno[2,3-c]pyrazole-5-carboxamide

> <PUBCHEM_IUPAC_SYSTEMATIC_NAME>
3-(2-fluorophenyl)-N-methyl-2H-thieno[2,3-c]pyrazole-5-carboxamide

> <PUBCHEM_IUPAC_TRADITIONAL_NAME>
3-(2-fluorophenyl)-N-methyl-2H-thieno[2,3-c]pyrazole-5-carboxamide

> <PUBCHEM_IUPAC_INCHI>
InChI=1S/C13H10FN3OS/c1-15-12(18)10-6-8-11(16-17-13(8)19-10)7-4-2-3-5-9(7)14/h2-6H,1H3,(H,15,18)(H,16,17)

> <PUBCHEM_IUPAC_INCHIKEY>
HHSVICUMCOBRPT-UHFFFAOYSA-N

> <PUBCHEM_XLOGP3_AA>
2.9

> <PUBCHEM_EXACT_MASS>
275.05286129

> <PUBCHEM_MOLECULAR_FORMULA>
C13H10FN3OS

> <PUBCHEM_MOLECULAR_WEIGHT>
275.30

> <PUBCHEM_SMILES>
CNC(=O)C1=CC2=C(NN=C2S1)C3=CC=CC=C3F

> <PUBCHEM_OPENEYE_CAN_SMILES>
CNC(=O)C1=CC2=C(NN=C2S1)C3=CC=CC=C3F

> <PUBCHEM_OPENEYE_ISO_SMILES>
CNC(=O)C1=CC2=C(NN=C2S1)C3=CC=CC=C3F

> <PUBCHEM_CACTVS_TPSA>
86

> <PUBCHEM_MONOISOTOPIC_WEIGHT>
275.05286129

> <PUBCHEM_TOTAL_CHARGE>
0

> <PUBCHEM_HEAVY_ATOM_COUNT>
19

> <PUBCHEM_ATOM_DEF_STEREO_COUNT>
0

> <PUBCHEM_ATOM_UDEF_STEREO_COUNT>
0

> <PUBCHEM_BOND_DEF_STEREO_COUNT>
0

> <PUBCHEM_BOND_UDEF_STEREO_COUNT>
0

> <PUBCHEM_ISOTOPIC_ATOM_COUNT>
0

> <PUBCHEM_COMPONENT_COUNT>
1

> <PUBCHEM_CACTVS_TAUTO_COUNT>
-1

> <PUBCHEM_COORDINATE_TYPE>
1
5
255

> <PUBCHEM_BONDANNOTATIONS>
1  12  8
1  9  8
10  13  8
10  14  8
11  12  8
13  16  8
14  17  8
16  18  8
17  18  8
4  5  8
4  8  8
5  9  8
7  11  8
7  8  8
7  9  8

$$$$
