24856436
  -OEChem-03202501532D

 69 73  0     0  0  0  0  0  0999 V2000
   15.1633   -2.5261    0.0000 O   0  0  0  0  0  0  0  0  0  0  0  0
   11.9171    2.5536    0.0000 O   0  0  0  0  0  0  0  0  0  0  0  0
    4.5981    1.7984    0.0000 N   0  0  0  0  0  0  0  0  0  0  0  0
    2.8660    2.7984    0.0000 N   0  0  0  0  0  0  0  0  0  0  0  0
   11.6065   -0.0064    0.0000 N   0  0  0  0  0  0  0  0  0  0  0  0
   12.1901    0.7984    0.0000 N   0  0  0  0  0  0  0  0  0  0  0  0
    8.0622   -0.2016    0.0000 N   0  0  0  0  0  0  0  0  0  0  0  0
    9.7942   -0.2016    0.0000 N   0  0  0  0  0  0  0  0  0  0  0  0
   12.8956   -1.1631    0.0000 N   0  0  0  0  0  0  0  0  0  0  0  0
    8.9282    1.2984    0.0000 N   0  0  0  0  0  0  0  0  0  0  0  0
    4.5981    2.7984    0.0000 C   0  0  0  0  0  0  0  0  0  0  0  0
    3.7320    1.2984    0.0000 C   0  0  0  0  0  0  0  0  0  0  0  0
    3.7320    3.2984    0.0000 C   0  0  0  0  0  0  0  0  0  0  0  0
    2.8660    1.7984    0.0000 C   0  0  0  0  0  0  0  0  0  0  0  0
    5.4641    1.2984    0.0000 C   0  0  0  0  0  0  0  0  0  0  0  0
    2.0000    3.2984    0.0000 C   0  0  0  0  0  0  0  0  0  0  0  0
    5.4641    0.2984    0.0000 C   0  0  0  0  0  0  0  0  0  0  0  0
    6.3301    1.7984    0.0000 C   0  0  0  0  0  0  0  0  0  0  0  0
   10.6603    0.2984    0.0000 C   0  0  0  0  0  0  0  0  0  0  0  0
    7.1962    0.2984    0.0000 C   0  0  0  0  0  0  0  0  0  0  0  0
    6.3301   -0.2016    0.0000 C   0  0  0  0  0  0  0  0  0  0  0  0
    7.1962    1.2984    0.0000 C   0  0  0  0  0  0  0  0  0  0  0  0
   10.6603    1.2984    0.0000 C   0  0  0  0  0  0  0  0  0  0  0  0
   14.1848   -2.3199    0.0000 C   0  0  0  0  0  0  0  0  0  0  0  0
   11.9171   -0.9569    0.0000 C   0  0  0  0  0  0  0  0  0  0  0  0
   11.6065    1.6031    0.0000 C   0  0  0  0  0  0  0  0  0  0  0  0
   13.2063   -2.1136    0.0000 C   0  0  0  0  0  0  0  0  0  0  0  0
   13.1901    0.7984    0.0000 C   0  0  0  0  0  0  0  0  0  0  0  0
    8.9282    0.2984    0.0000 C   0  0  0  0  0  0  0  0  0  0  0  0
    9.7942    1.7984    0.0000 C   0  0  0  0  0  0  0  0  0  0  0  0
   11.2493   -1.7012    0.0000 C   0  0  0  0  0  0  0  0  0  0  0  0
   13.9786   -3.2984    0.0000 C   0  0  0  0  0  0  0  0  0  0  0  0
   14.3910   -1.3414    0.0000 C   0  0  0  0  0  0  0  0  0  0  0  0
   12.5385   -2.8579    0.0000 C   0  0  0  0  0  0  0  0  0  0  0  0
   11.5600   -2.6517    0.0000 C   0  0  0  0  0  0  0  0  0  0  0  0
   13.6901    1.6644    0.0000 C   0  0  0  0  0  0  0  0  0  0  0  0
   14.6901    1.6644    0.0000 C   0  0  0  0  0  0  0  0  0  0  0  0
    5.2087    2.6907    0.0000 H   0  0  0  0  0  0  0  0  0  0  0  0
    4.8101    3.3810    0.0000 H   0  0  0  0  0  0  0  0  0  0  0  0
    3.3335    0.8234    0.0000 H   0  0  0  0  0  0  0  0  0  0  0  0
    4.1306    0.8234    0.0000 H   0  0  0  0  0  0  0  0  0  0  0  0
    4.1306    3.7733    0.0000 H   0  0  0  0  0  0  0  0  0  0  0  0
    3.3335    3.7733    0.0000 H   0  0  0  0  0  0  0  0  0  0  0  0
    2.2554    1.9060    0.0000 H   0  0  0  0  0  0  0  0  0  0  0  0
    2.6540    1.2158    0.0000 H   0  0  0  0  0  0  0  0  0  0  0  0
    2.3100    3.8353    0.0000 H   0  0  0  0  0  0  0  0  0  0  0  0
    1.4631    3.6084    0.0000 H   0  0  0  0  0  0  0  0  0  0  0  0
    1.6900    2.7614    0.0000 H   0  0  0  0  0  0  0  0  0  0  0  0
    4.9272   -0.0116    0.0000 H   0  0  0  0  0  0  0  0  0  0  0  0
    6.3301    2.4184    0.0000 H   0  0  0  0  0  0  0  0  0  0  0  0
    6.3301   -0.8216    0.0000 H   0  0  0  0  0  0  0  0  0  0  0  0
    7.7331    1.6084    0.0000 H   0  0  0  0  0  0  0  0  0  0  0  0
   13.0824    0.1878    0.0000 H   0  0  0  0  0  0  0  0  0  0  0  0
   13.7727    0.5863    0.0000 H   0  0  0  0  0  0  0  0  0  0  0  0
    8.0622   -0.8216    0.0000 H   0  0  0  0  0  0  0  0  0  0  0  0
    9.7942    2.4184    0.0000 H   0  0  0  0  0  0  0  0  0  0  0  0
   10.6426   -1.5733    0.0000 H   0  0  0  0  0  0  0  0  0  0  0  0
   13.3719   -3.1705    0.0000 H   0  0  0  0  0  0  0  0  0  0  0  0
   13.8507   -3.9050    0.0000 H   0  0  0  0  0  0  0  0  0  0  0  0
   14.5853   -3.4262    0.0000 H   0  0  0  0  0  0  0  0  0  0  0  0
   14.9977   -1.4692    0.0000 H   0  0  0  0  0  0  0  0  0  0  0  0
   14.5189   -0.7347    0.0000 H   0  0  0  0  0  0  0  0  0  0  0  0
   13.7844   -1.2135    0.0000 H   0  0  0  0  0  0  0  0  0  0  0  0
   12.7311   -3.4473    0.0000 H   0  0  0  0  0  0  0  0  0  0  0  0
   11.1459   -3.1132    0.0000 H   0  0  0  0  0  0  0  0  0  0  0  0
   13.3801    2.2013    0.0000 H   0  0  0  0  0  0  0  0  0  0  0  0
   15.3559   -3.1154    0.0000 H   0  0  0  0  0  0  0  0  0  0  0  0
   15.0001    1.1274    0.0000 H   0  0  0  0  0  0  0  0  0  0  0  0
   15.0001    2.2013    0.0000 H   0  0  0  0  0  0  0  0  0  0  0  0
  1 24  1  0  0  0  0
  1 67  1  0  0  0  0
  2 26  2  0  0  0  0
  3 11  1  0  0  0  0
  3 12  1  0  0  0  0
  3 15  1  0  0  0  0
  4 13  1  0  0  0  0
  4 14  1  0  0  0  0
  4 16  1  0  0  0  0
  5  6  1  0  0  0  0
  5 19  1  0  0  0  0
  5 25  1  0  0  0  0
  6 26  1  0  0  0  0
  6 28  1  0  0  0  0
  7 20  1  0  0  0  0
  7 29  1  0  0  0  0
  7 55  1  0  0  0  0
  8 19  2  0  0  0  0
  8 29  1  0  0  0  0
  9 25  1  0  0  0  0
  9 27  2  0  0  0  0
 10 29  2  0  0  0  0
 10 30  1  0  0  0  0
 11 13  1  0  0  0  0
 11 38  1  0  0  0  0
 11 39  1  0  0  0  0
 12 14  1  0  0  0  0
 12 40  1  0  0  0  0
 12 41  1  0  0  0  0
 13 42  1  0  0  0  0
 13 43  1  0  0  0  0
 14 44  1  0  0  0  0
 14 45  1  0  0  0  0
 15 17  2  0  0  0  0
 15 18  1  0  0  0  0
 16 46  1  0  0  0  0
 16 47  1  0  0  0  0
 16 48  1  0  0  0  0
 17 21  1  0  0  0  0
 17 49  1  0  0  0  0
 18 22  2  0  0  0  0
 18 50  1  0  0  0  0
 19 23  1  0  0  0  0
 20 21  2  0  0  0  0
 20 22  1  0  0  0  0
 21 51  1  0  0  0  0
 22 52  1  0  0  0  0
 23 26  1  0  0  0  0
 23 30  2  0  0  0  0
 24 27  1  0  0  0  0
 24 32  1  0  0  0  0
 24 33  1  0  0  0  0
 25 31  2  0  0  0  0
 27 34  1  0  0  0  0
 28 36  1  0  0  0  0
 28 53  1  0  0  0  0
 28 54  1  0  0  0  0
 30 56  1  0  0  0  0
 31 35  1  0  0  0  0
 31 57  1  0  0  0  0
 32 58  1  0  0  0  0
 32 59  1  0  0  0  0
 32 60  1  0  0  0  0
 33 61  1  0  0  0  0
 33 62  1  0  0  0  0
 33 63  1  0  0  0  0
 34 35  2  0  0  0  0
 34 64  1  0  0  0  0
 35 65  1  0  0  0  0
 36 37  2  0  0  0  0
 36 66  1  0  0  0  0
 37 68  1  0  0  0  0
 37 69  1  0  0  0  0
M  END
> <PUBCHEM_COMPOUND_CID>
24856436

> <PUBCHEM_COMPOUND_CANONICALIZED>
1

> <PUBCHEM_CACTVS_COMPLEXITY>
795

> <PUBCHEM_CACTVS_HBOND_ACCEPTOR>
9

> <PUBCHEM_CACTVS_HBOND_DONOR>
2

> <PUBCHEM_CACTVS_ROTATABLE_BOND>
7

> <PUBCHEM_CACTVS_SUBSKEYS>
AAADcfB78AAAAAAAAAAAAAAAAAAAAWAAAAA8WLEAAAAAAFgB8AAAHgAYCAAADEzBngQ/8JfIEgCoAzd3dASChCk1AqAf2CE4bNiKburA2dGUdIhs1gPY2OeQwEAMAACAAAAAAAAAAQAAAAAAAAAAAAAAAA==

> <PUBCHEM_IUPAC_OPENEYE_NAME>
2-allyl-1-[6-(1-hydroxy-1-methyl-ethyl)-2-pyridyl]-6-[4-(4-methylpiperazin-1-yl)anilino]pyrazolo[3,4-d]pyrimidin-3-one

> <PUBCHEM_IUPAC_CAS_NAME>
1-[6-(2-hydroxypropan-2-yl)-2-pyridinyl]-6-[4-(4-methyl-1-piperazinyl)anilino]-2-prop-2-enyl-3-pyrazolo[3,4-d]pyrimidinone

> <PUBCHEM_IUPAC_NAME_MARKUP>
1-[6-(2-hydroxypropan-2-yl)pyridin-2-yl]-6-[4-(4-methylpiperazin-1-yl)anilino]-2-prop-2-enylpyrazolo[3,4-d]pyrimidin-3-one

> <PUBCHEM_IUPAC_NAME>
1-[6-(2-hydroxypropan-2-yl)pyridin-2-yl]-6-[4-(4-methylpiperazin-1-yl)anilino]-2-prop-2-enylpyrazolo[3,4-d]pyrimidin-3-one

> <PUBCHEM_IUPAC_SYSTEMATIC_NAME>
6-[[4-(4-methylpiperazin-1-yl)phenyl]amino]-1-[6-(2-oxidanylpropan-2-yl)pyridin-2-yl]-2-prop-2-enyl-pyrazolo[3,4-d]pyrimidin-3-one

> <PUBCHEM_IUPAC_TRADITIONAL_NAME>
2-allyl-1-[6-(1-hydroxy-1-methyl-ethyl)-2-pyridyl]-6-[4-(4-methylpiperazino)anilino]pyrazolo[3,4-d]pyrimidin-3-one

> <PUBCHEM_IUPAC_INCHI>
InChI=1S/C27H32N8O2/c1-5-13-34-25(36)21-18-28-26(29-19-9-11-20(12-10-19)33-16-14-32(4)15-17-33)31-24(21)35(34)23-8-6-7-22(30-23)27(2,3)37/h5-12,18,37H,1,13-17H2,2-4H3,(H,28,29,31)

> <PUBCHEM_IUPAC_INCHIKEY>
BKWJAKQVGHWELA-UHFFFAOYSA-N

> <PUBCHEM_XLOGP3_AA>
3.1

> <PUBCHEM_EXACT_MASS>
500.26482229

> <PUBCHEM_MOLECULAR_FORMULA>
C27H32N8O2

> <PUBCHEM_MOLECULAR_WEIGHT>
500.6

> <PUBCHEM_SMILES>
CC(C)(C1=NC(=CC=C1)N2C3=NC(=NC=C3C(=O)N2CC=C)NC4=CC=C(C=C4)N5CCN(CC5)C)O

> <PUBCHEM_OPENEYE_CAN_SMILES>
CC(C)(C1=NC(=CC=C1)N2C3=NC(=NC=C3C(=O)N2CC=C)NC4=CC=C(C=C4)N5CCN(CC5)C)O

> <PUBCHEM_OPENEYE_ISO_SMILES>
CC(C)(C1=NC(=CC=C1)N2C3=NC(=NC=C3C(=O)N2CC=C)NC4=CC=C(C=C4)N5CCN(CC5)C)O

> <PUBCHEM_CACTVS_TPSA>
101

> <PUBCHEM_MONOISOTOPIC_WEIGHT>
500.26482229

> <PUBCHEM_TOTAL_CHARGE>
0

> <PUBCHEM_HEAVY_ATOM_COUNT>
37

> <PUBCHEM_ATOM_DEF_STEREO_COUNT>
0

> <PUBCHEM_ATOM_UDEF_STEREO_COUNT>
0

> <PUBCHEM_BOND_DEF_STEREO_COUNT>
0

> <PUBCHEM_BOND_UDEF_STEREO_COUNT>
0

> <PUBCHEM_ISOTOPIC_ATOM_COUNT>
0

> <PUBCHEM_COMPONENT_COUNT>
1

> <PUBCHEM_CACTVS_TAUTO_COUNT>
-1

> <PUBCHEM_COORDINATE_TYPE>
1
5
255

> <PUBCHEM_BONDANNOTATIONS>
10  29  8
10  30  8
15  17  8
15  18  8
17  21  8
18  22  8
19  23  8
20  21  8
20  22  8
23  26  8
23  30  8
25  31  8
27  34  8
31  35  8
34  35  8
5  19  8
5  6  8
6  26  8
8  19  8
8  29  8
9  25  8
9  27  8

$$$$
