49830915
  -OEChem-03202503532D

 47 50  0     0  0  0  0  0  0999 V2000
    7.2622    3.6550    0.0000 O   0  0  0  0  0  0  0  0  0  0  0  0
    7.2622   -3.3450    0.0000 O   0  0  0  0  0  0  0  0  0  0  0  0
    8.9942    3.6550    0.0000 O   0  0  0  0  0  0  0  0  0  0  0  0
    7.2622    0.6550    0.0000 N   0  0  0  0  0  0  0  0  0  0  0  0
    9.8602    2.1550    0.0000 N   0  0  0  0  0  0  0  0  0  0  0  0
    2.0038   -0.3758    0.0000 N   0  0  0  0  0  0  0  0  0  0  0  0
   10.7263    2.6550    0.0000 N   0  0  0  0  0  0  0  0  0  0  0  0
    6.3961    1.1550    0.0000 C   0  0  0  0  0  0  0  0  0  0  0  0
    6.3961    2.1550    0.0000 C   0  0  0  0  0  0  0  0  0  0  0  0
    7.2622   -0.3450    0.0000 C   0  0  0  0  0  0  0  0  0  0  0  0
    5.5022    0.6203    0.0000 C   0  0  0  0  0  0  0  0  0  0  0  0
    8.1282    1.1550    0.0000 C   0  0  0  0  0  0  0  0  0  0  0  0
    8.1282    2.1550    0.0000 C   0  0  0  0  0  0  0  0  0  0  0  0
    7.2622    2.6550    0.0000 C   0  0  0  0  0  0  0  0  0  0  0  0
    4.5961    1.1342    0.0000 C   0  0  0  0  0  0  0  0  0  0  0  0
    5.5022    2.6897    0.0000 C   0  0  0  0  0  0  0  0  0  0  0  0
    6.3961   -0.8450    0.0000 C   0  0  0  0  0  0  0  0  0  0  0  0
    4.5961    2.1758    0.0000 C   0  0  0  0  0  0  0  0  0  0  0  0
    8.1282   -0.8450    0.0000 C   0  0  0  0  0  0  0  0  0  0  0  0
    3.7320    0.6308    0.0000 C   0  0  0  0  0  0  0  0  0  0  0  0
    6.3961   -1.8450    0.0000 C   0  0  0  0  0  0  0  0  0  0  0  0
    5.5301   -0.3450    0.0000 C   0  0  0  0  0  0  0  0  0  0  0  0
    8.1282   -1.8450    0.0000 C   0  0  0  0  0  0  0  0  0  0  0  0
    8.9942    2.6550    0.0000 C   0  0  0  0  0  0  0  0  0  0  0  0
    7.2622   -2.3450    0.0000 C   0  0  0  0  0  0  0  0  0  0  0  0
    3.7359   -0.3691    0.0000 C   0  0  0  0  0  0  0  0  0  0  0  0
    2.8641    1.1275    0.0000 C   0  0  0  0  0  0  0  0  0  0  0  0
    2.8718   -0.8725    0.0000 C   0  0  0  0  0  0  0  0  0  0  0  0
    2.0000    0.6242    0.0000 C   0  0  0  0  0  0  0  0  0  0  0  0
    5.5094    0.0004    0.0000 H   0  0  0  0  0  0  0  0  0  0  0  0
    8.6651    0.8450    0.0000 H   0  0  0  0  0  0  0  0  0  0  0  0
    5.5094    3.3096    0.0000 H   0  0  0  0  0  0  0  0  0  0  0  0
    4.0604    2.4879    0.0000 H   0  0  0  0  0  0  0  0  0  0  0  0
    8.6651   -0.5350    0.0000 H   0  0  0  0  0  0  0  0  0  0  0  0
    5.8592   -2.1550    0.0000 H   0  0  0  0  0  0  0  0  0  0  0  0
    5.8401    0.1919    0.0000 H   0  0  0  0  0  0  0  0  0  0  0  0
    4.9932   -0.0350    0.0000 H   0  0  0  0  0  0  0  0  0  0  0  0
    5.2201   -0.8819    0.0000 H   0  0  0  0  0  0  0  0  0  0  0  0
    8.6651   -2.1550    0.0000 H   0  0  0  0  0  0  0  0  0  0  0  0
    4.2740   -0.6771    0.0000 H   0  0  0  0  0  0  0  0  0  0  0  0
    2.8617    1.7475    0.0000 H   0  0  0  0  0  0  0  0  0  0  0  0
    9.8602    1.5350    0.0000 H   0  0  0  0  0  0  0  0  0  0  0  0
    2.8742   -1.4925    0.0000 H   0  0  0  0  0  0  0  0  0  0  0  0
    1.4619    0.9321    0.0000 H   0  0  0  0  0  0  0  0  0  0  0  0
    7.7991   -3.6550    0.0000 H   0  0  0  0  0  0  0  0  0  0  0  0
   11.2632    2.3450    0.0000 H   0  0  0  0  0  0  0  0  0  0  0  0
   10.7263    3.2750    0.0000 H   0  0  0  0  0  0  0  0  0  0  0  0
  1 14  2  0  0  0  0
  2 25  1  0  0  0  0
  2 45  1  0  0  0  0
  3 24  2  0  0  0  0
  4  8  1  0  0  0  0
  4 10  1  0  0  0  0
  4 12  1  0  0  0  0
  5  7  1  0  0  0  0
  5 24  1  0  0  0  0
  5 42  1  0  0  0  0
  6 28  2  0  0  0  0
  6 29  1  0  0  0  0
  7 46  1  0  0  0  0
  7 47  1  0  0  0  0
  8  9  2  0  0  0  0
  8 11  1  0  0  0  0
  9 14  1  0  0  0  0
  9 16  1  0  0  0  0
 10 17  2  0  0  0  0
 10 19  1  0  0  0  0
 11 15  2  0  0  0  0
 11 30  1  0  0  0  0
 12 13  2  0  0  0  0
 12 31  1  0  0  0  0
 13 14  1  0  0  0  0
 13 24  1  0  0  0  0
 15 18  1  0  0  0  0
 15 20  1  0  0  0  0
 16 18  2  0  0  0  0
 16 32  1  0  0  0  0
 17 21  1  0  0  0  0
 17 22  1  0  0  0  0
 18 33  1  0  0  0  0
 19 23  2  0  0  0  0
 19 34  1  0  0  0  0
 20 26  2  0  0  0  0
 20 27  1  0  0  0  0
 21 25  2  0  0  0  0
 21 35  1  0  0  0  0
 22 36  1  0  0  0  0
 22 37  1  0  0  0  0
 22 38  1  0  0  0  0
 23 25  1  0  0  0  0
 23 39  1  0  0  0  0
 26 28  1  0  0  0  0
 26 40  1  0  0  0  0
 27 29  2  0  0  0  0
 27 41  1  0  0  0  0
 28 43  1  0  0  0  0
 29 44  1  0  0  0  0
M  END
> <PUBCHEM_COMPOUND_CID>
49830915

> <PUBCHEM_COMPOUND_CANONICALIZED>
1

> <PUBCHEM_CACTVS_COMPLEXITY>
660

> <PUBCHEM_CACTVS_HBOND_ACCEPTOR>
6

> <PUBCHEM_CACTVS_HBOND_DONOR>
3

> <PUBCHEM_CACTVS_ROTATABLE_BOND>
3

> <PUBCHEM_CACTVS_SUBSKEYS>
AAADceB7sAAAAAAAAAAAAAAAAAAAAAAAAAA8YIEAAAAAAACB0AAAHgAYCAAADAzBmgQ+xpNqEgCoArV3VACCgCA1IiIa+CE+bNgIJnrKlZOEcYhkwBHI2ce4ydCewEABQAACAACAgAKAAAQAAAAAAAAAAA==

> <PUBCHEM_IUPAC_OPENEYE_NAME>
1-(4-hydroxy-2-methyl-phenyl)-4-oxo-7-(4-pyridyl)quinoline-3-carbohydrazide

> <PUBCHEM_IUPAC_CAS_NAME>
1-(4-hydroxy-2-methylphenyl)-4-oxo-7-pyridin-4-yl-3-quinolinecarbohydrazide

> <PUBCHEM_IUPAC_NAME_MARKUP>
1-(4-hydroxy-2-methylphenyl)-4-oxo-7-pyridin-4-ylquinoline-3-carbohydrazide

> <PUBCHEM_IUPAC_NAME>
1-(4-hydroxy-2-methylphenyl)-4-oxo-7-pyridin-4-ylquinoline-3-carbohydrazide

> <PUBCHEM_IUPAC_SYSTEMATIC_NAME>
1-(2-methyl-4-oxidanyl-phenyl)-4-oxidanylidene-7-pyridin-4-yl-quinoline-3-carbohydrazide

> <PUBCHEM_IUPAC_TRADITIONAL_NAME>
1-(4-hydroxy-2-methyl-phenyl)-4-keto-7-(4-pyridyl)quinoline-3-carbohydrazide

> <PUBCHEM_IUPAC_INCHI>
InChI=1S/C22H18N4O3/c1-13-10-16(27)3-5-19(13)26-12-18(22(29)25-23)21(28)17-4-2-15(11-20(17)26)14-6-8-24-9-7-14/h2-12,27H,23H2,1H3,(H,25,29)

> <PUBCHEM_IUPAC_INCHIKEY>
QEWSTOOMTBAUAG-UHFFFAOYSA-N

> <PUBCHEM_XLOGP3_AA>
3.1

> <PUBCHEM_EXACT_MASS>
386.13789045

> <PUBCHEM_MOLECULAR_FORMULA>
C22H18N4O3

> <PUBCHEM_MOLECULAR_WEIGHT>
386.4

> <PUBCHEM_SMILES>
CC1=C(C=CC(=C1)O)N2C=C(C(=O)C3=C2C=C(C=C3)C4=CC=NC=C4)C(=O)NN

> <PUBCHEM_OPENEYE_CAN_SMILES>
CC1=C(C=CC(=C1)O)N2C=C(C(=O)C3=C2C=C(C=C3)C4=CC=NC=C4)C(=O)NN

> <PUBCHEM_OPENEYE_ISO_SMILES>
CC1=C(C=CC(=C1)O)N2C=C(C(=O)C3=C2C=C(C=C3)C4=CC=NC=C4)C(=O)NN

> <PUBCHEM_CACTVS_TPSA>
109

> <PUBCHEM_MONOISOTOPIC_WEIGHT>
386.13789045

> <PUBCHEM_TOTAL_CHARGE>
0

> <PUBCHEM_HEAVY_ATOM_COUNT>
29

> <PUBCHEM_ATOM_DEF_STEREO_COUNT>
0

> <PUBCHEM_ATOM_UDEF_STEREO_COUNT>
0

> <PUBCHEM_BOND_DEF_STEREO_COUNT>
0

> <PUBCHEM_BOND_UDEF_STEREO_COUNT>
0

> <PUBCHEM_ISOTOPIC_ATOM_COUNT>
0

> <PUBCHEM_COMPONENT_COUNT>
1

> <PUBCHEM_CACTVS_TAUTO_COUNT>
-1

> <PUBCHEM_COORDINATE_TYPE>
1
5
255

> <PUBCHEM_BONDANNOTATIONS>
10  17  8
10  19  8
11  15  8
12  13  8
13  14  8
15  18  8
16  18  8
17  21  8
19  23  8
20  26  8
20  27  8
21  25  8
23  25  8
26  28  8
27  29  8
4  12  8
4  8  8
6  28  8
6  29  8
8  11  8
8  9  8
9  14  8
9  16  8

$$$$
