44460282
  -OEChem-03202507272D

 66 70  0     1  0  0  0  0  0999 V2000
    7.7842    0.1933    0.0000 O   0  0  0  0  0  0  0  0  0  0  0  0
    8.6663   -2.3482    0.0000 O   0  0  0  0  0  0  0  0  0  0  0  0
   10.4365   -1.3514    0.0000 O   0  0  0  0  0  0  0  0  0  0  0  0
   10.4523    0.6969    0.0000 O   0  0  0  0  0  0  0  0  0  0  0  0
    8.6784    1.7210    0.0000 O   0  0  0  0  0  0  0  0  0  0  0  0
    6.0682    0.1518    0.0000 O   0  0  0  0  0  0  0  0  0  0  0  0
    7.8003   -3.8482    0.0000 O   0  0  0  0  0  0  0  0  0  0  0  0
    4.3198   -3.8828    0.0000 O   0  0  0  0  0  0  0  0  0  0  0  0
   10.4105    1.7277    0.0000 O   0  0  0  0  0  0  0  0  0  0  0  0
    4.9502   -4.7686    0.0000 O   0  0  0  0  0  0  0  0  0  0  0  0
    2.5381   -0.8241    0.0000 O   0  0  0  0  0  0  0  0  0  0  0  0
    2.5381   -2.8724    0.0000 O   0  0  0  0  0  0  0  0  0  0  0  0
    7.0944   -6.2084    0.0000 O   0  0  0  0  0  0  0  0  0  0  0  0
    9.3312   -4.9170    0.0000 O   0  0  0  0  0  0  0  0  0  0  0  0
    7.7989    5.2177    0.0000 O   0  0  0  0  0  0  0  0  0  0  0  0
   11.2630    5.2310    0.0000 O   0  0  0  0  0  0  0  0  0  0  0  0
    9.5271    6.2243    0.0000 O   0  0  0  0  0  0  0  0  0  0  0  0
    8.6663   -1.3482    0.0000 C   0  0  3  0  0  0  0  0  0  0  0  0
    7.8003   -0.8482    0.0000 C   0  0  3  0  0  0  0  0  0  0  0  0
    9.5763   -0.8414    0.0000 C   0  0  3  0  0  0  0  0  0  0  0  0
    9.5844    0.2002    0.0000 C   0  0  3  0  0  0  0  0  0  0  0  0
    8.6823    0.7210    0.0000 C   0  0  2  0  0  0  0  0  0  0  0  0
    6.9343   -1.3482    0.0000 C   0  0  0  0  0  0  0  0  0  0  0  0
    6.0682   -0.8482    0.0000 C   0  0  0  0  0  0  0  0  0  0  0  0
    5.2022   -1.3482    0.0000 C   0  0  0  0  0  0  0  0  0  0  0  0
    7.8003   -2.8482    0.0000 C   0  0  0  0  0  0  0  0  0  0  0  0
    5.2022   -2.3482    0.0000 C   0  0  0  0  0  0  0  0  0  0  0  0
    6.9343   -2.3482    0.0000 C   0  0  0  0  0  0  0  0  0  0  0  0
    6.0682   -2.8482    0.0000 C   0  0  0  0  0  0  0  0  0  0  0  0
    4.3083   -0.8136    0.0000 C   0  0  0  0  0  0  0  0  0  0  0  0
    9.5425    2.2244    0.0000 C   0  0  0  0  0  0  0  0  0  0  0  0
    4.3083   -2.8829    0.0000 C   0  0  0  0  0  0  0  0  0  0  0  0
    5.8624   -4.3590    0.0000 C   0  0  0  0  0  0  0  0  0  0  0  0
    8.3456   -2.9254    0.0000 C   0  0  0  0  0  0  0  0  0  0  0  0
    3.4022   -1.3274    0.0000 C   0  0  0  0  0  0  0  0  0  0  0  0
    3.4022   -2.3690    0.0000 C   0  0  0  0  0  0  0  0  0  0  0  0
    9.5387    3.2244    0.0000 C   0  0  0  0  0  0  0  0  0  0  0  0
    7.1283   -5.2090    0.0000 C   0  0  0  0  0  0  0  0  0  0  0  0
    8.4488   -4.4466    0.0000 C   0  0  0  0  0  0  0  0  0  0  0  0
   10.4028    3.7277    0.0000 C   0  0  0  0  0  0  0  0  0  0  0  0
    8.6707    3.7210    0.0000 C   0  0  0  0  0  0  0  0  0  0  0  0
    8.6669    4.7210    0.0000 C   0  0  0  0  0  0  0  0  0  0  0  0
   10.3989    4.7277    0.0000 C   0  0  0  0  0  0  0  0  0  0  0  0
    9.5310    5.2244    0.0000 C   0  0  0  0  0  0  0  0  0  0  0  0
    9.2009   -1.6624    0.0000 H   0  0  0  0  0  0  0  0  0  0  0  0
    7.2610   -0.5424    0.0000 H   0  0  0  0  0  0  0  0  0  0  0  0
    9.5680   -1.4613    0.0000 H   0  0  0  0  0  0  0  0  0  0  0  0
   10.1195   -0.1129    0.0000 H   0  0  0  0  0  0  0  0  0  0  0  0
    9.2186    1.0321    0.0000 H   0  0  0  0  0  0  0  0  0  0  0  0
    6.5358   -1.8232    0.0000 H   0  0  0  0  0  0  0  0  0  0  0  0
    7.3328   -1.8232    0.0000 H   0  0  0  0  0  0  0  0  0  0  0  0
   10.9770   -1.0476    0.0000 H   0  0  0  0  0  0  0  0  0  0  0  0
   10.9880    0.3848    0.0000 H   0  0  0  0  0  0  0  0  0  0  0  0
    4.3154   -0.1936    0.0000 H   0  0  0  0  0  0  0  0  0  0  0  0
    8.8483   -2.5625    0.0000 H   0  0  0  0  0  0  0  0  0  0  0  0
    3.7865   -4.1990    0.0000 H   0  0  0  0  0  0  0  0  0  0  0  0
   10.9409    3.4198    0.0000 H   0  0  0  0  0  0  0  0  0  0  0  0
    8.1350    3.4090    0.0000 H   0  0  0  0  0  0  0  0  0  0  0  0
    4.8873   -5.3854    0.0000 H   0  0  0  0  0  0  0  0  0  0  0  0
    2.5405   -0.2041    0.0000 H   0  0  0  0  0  0  0  0  0  0  0  0
    2.0000   -2.5644    0.0000 H   0  0  0  0  0  0  0  0  0  0  0  0
    7.6206   -6.5364    0.0000 H   0  0  0  0  0  0  0  0  0  0  0  0
    9.3522   -5.5366    0.0000 H   0  0  0  0  0  0  0  0  0  0  0  0
    7.2632    4.9056    0.0000 H   0  0  0  0  0  0  0  0  0  0  0  0
   11.8011    4.9231    0.0000 H   0  0  0  0  0  0  0  0  0  0  0  0
   10.0628    6.5364    0.0000 H   0  0  0  0  0  0  0  0  0  0  0  0
  1 19  1  0  0  0  0
  1 22  1  0  0  0  0
  2 18  1  0  0  0  0
  2 26  1  0  0  0  0
  3 20  1  0  0  0  0
  3 52  1  0  0  0  0
  4 21  1  0  0  0  0
  4 53  1  0  0  0  0
 22  5  1  6  0  0  0
  5 31  1  0  0  0  0
  6 24  2  0  0  0  0
  7 26  2  0  0  0  0
  8 32  1  0  0  0  0
  8 56  1  0  0  0  0
  9 31  2  0  0  0  0
 10 33  1  0  0  0  0
 10 59  1  0  0  0  0
 11 35  1  0  0  0  0
 11 60  1  0  0  0  0
 12 36  1  0  0  0  0
 12 61  1  0  0  0  0
 13 38  1  0  0  0  0
 13 62  1  0  0  0  0
 14 39  1  0  0  0  0
 14 63  1  0  0  0  0
 15 42  1  0  0  0  0
 15 64  1  0  0  0  0
 16 43  1  0  0  0  0
 16 65  1  0  0  0  0
 17 44  1  0  0  0  0
 17 66  1  0  0  0  0
 18 19  1  0  0  0  0
 18 20  1  0  0  0  0
 18 45  1  0  0  0  0
 19 23  1  0  0  0  0
 19 46  1  0  0  0  0
 20 21  1  0  0  0  0
 20 47  1  0  0  0  0
 21 22  1  0  0  0  0
 21 48  1  0  0  0  0
 22 49  1  0  0  0  0
 23 24  1  0  0  0  0
 23 50  1  0  0  0  0
 23 51  1  0  0  0  0
 24 25  1  0  0  0  0
 25 27  1  0  0  0  0
 25 30  2  0  0  0  0
 26 28  1  0  0  0  0
 27 29  1  0  0  0  0
 27 32  2  0  0  0  0
 28 29  1  0  0  0  0
 28 34  2  0  0  0  0
 29 33  2  0  0  0  0
 30 35  1  0  0  0  0
 30 54  1  0  0  0  0
 31 37  1  0  0  0  0
 32 36  1  0  0  0  0
 33 38  1  0  0  0  0
 34 39  1  0  0  0  0
 34 55  1  0  0  0  0
 35 36  2  0  0  0  0
 37 40  2  0  0  0  0
 37 41  1  0  0  0  0
 38 39  2  0  0  0  0
 40 43  1  0  0  0  0
 40 57  1  0  0  0  0
 41 42  2  0  0  0  0
 41 58  1  0  0  0  0
 42 44  1  0  0  0  0
 43 44  2  0  0  0  0
M  END
> <PUBCHEM_COMPOUND_CID>
44460282

> <PUBCHEM_COMPOUND_CANONICALIZED>
1

> <PUBCHEM_CACTVS_COMPLEXITY>
1080

> <PUBCHEM_CACTVS_HBOND_ACCEPTOR>
17

> <PUBCHEM_CACTVS_HBOND_DONOR>
11

> <PUBCHEM_CACTVS_ROTATABLE_BOND>
3

> <PUBCHEM_CACTVS_SUBSKEYS>
AAADceB4PgAAAAAAAAAAAAAAAAAAAAAAAAA0YMEAAAAAAACRUAAAGgAACAAADBSwmAMwDoAABgCIAqDSCAACAAAkIAAAiAEGiMgZNzaCNRqicQEl4BUPuYfK7PzOoAABCAAYQABAAAIQADCAAAAAAAAAAA==

> <PUBCHEM_IUPAC_OPENEYE_NAME>
[(13R)-3,4,5,11,12,20,21,22-octahydroxy-8,17-dioxo-9,14-dioxatetracyclo[16.4.0.02,7.010,15]docosa-1(22),2,4,6,18,20-hexaen-13-yl] 3,4,5-trihydroxybenzoate

> <PUBCHEM_IUPAC_CAS_NAME>
3,4,5-trihydroxybenzoic acid [(13R)-3,4,5,11,12,20,21,22-octahydroxy-8,17-dioxo-9,14-dioxatetracyclo[16.4.0.02,7.010,15]docosa-1(22),2,4,6,18,20-hexaen-13-yl] ester

> <PUBCHEM_IUPAC_NAME_MARKUP>
[(13<I>R</I>)-3,4,5,11,12,20,21,22-octahydroxy-8,17-dioxo-9,14-dioxatetracyclo[16.4.0.0<SUP>2,7</SUP>.0<SUP>10,15</SUP>]docosa-1(22),2,4,6,18,20-hexaen-13-yl] 3,4,5-trihydroxybenzoate

> <PUBCHEM_IUPAC_NAME>
[(13R)-3,4,5,11,12,20,21,22-octahydroxy-8,17-dioxo-9,14-dioxatetracyclo[16.4.0.02,7.010,15]docosa-1(22),2,4,6,18,20-hexaen-13-yl] 3,4,5-trihydroxybenzoate

> <PUBCHEM_IUPAC_SYSTEMATIC_NAME>
[(13R)-3,4,5,11,12,20,21,22-octakis(oxidanyl)-8,17-bis(oxidanylidene)-9,14-dioxatetracyclo[16.4.0.02,7.010,15]docosa-1(22),2,4,6,18,20-hexaen-13-yl] 3,4,5-tris(oxidanyl)benzoate

> <PUBCHEM_IUPAC_TRADITIONAL_NAME>
3,4,5-trihydroxybenzoic acid [(13R)-3,4,5,11,12,20,21,22-octahydroxy-8,17-diketo-9,14-dioxatetracyclo[16.4.0.02,7.010,15]docosa-1(22),2,4,6,18,20-hexaen-13-yl] ester

> <PUBCHEM_IUPAC_INCHI>
InChI=1S/C27H22O17/c28-9-5-14-24(22(38)23(39)27(42-14)44-25(40)6-1-10(29)17(33)11(30)2-6)43-26(41)8-4-13(32)19(35)21(37)16(8)15-7(9)3-12(31)18(34)20(15)36/h1-4,14,22-24,27,29-39H,5H2/t14?,22?,23?,24?,27-/m1/s1

> <PUBCHEM_IUPAC_INCHIKEY>
DPRNKDPFIHTCKE-QVTWFEFESA-N

> <PUBCHEM_XLOGP3_AA>
-0.1

> <PUBCHEM_EXACT_MASS>
618.08569923

> <PUBCHEM_MOLECULAR_FORMULA>
C27H22O17

> <PUBCHEM_MOLECULAR_WEIGHT>
618.5

> <PUBCHEM_SMILES>
C1C2C(C(C([C@H](O2)OC(=O)C3=CC(=C(C(=C3)O)O)O)O)O)OC(=O)C4=CC(=C(C(=C4C5=C(C(=C(C=C5C1=O)O)O)O)O)O)O

> <PUBCHEM_OPENEYE_CAN_SMILES>
C1C2C(C(C(C(O2)OC(=O)C3=CC(=C(C(=C3)O)O)O)O)O)OC(=O)C4=CC(=C(C(=C4C5=C(C(=C(C=C5C1=O)O)O)O)O)O)O

> <PUBCHEM_OPENEYE_ISO_SMILES>
C1C2C(C(C([C@H](O2)OC(=O)C3=CC(=C(C(=C3)O)O)O)O)O)OC(=O)C4=CC(=C(C(=C4C5=C(C(=C(C=C5C1=O)O)O)O)O)O)O

> <PUBCHEM_CACTVS_TPSA>
301

> <PUBCHEM_MONOISOTOPIC_WEIGHT>
618.08569923

> <PUBCHEM_TOTAL_CHARGE>
0

> <PUBCHEM_HEAVY_ATOM_COUNT>
44

> <PUBCHEM_ATOM_DEF_STEREO_COUNT>
1

> <PUBCHEM_ATOM_UDEF_STEREO_COUNT>
4

> <PUBCHEM_BOND_DEF_STEREO_COUNT>
0

> <PUBCHEM_BOND_UDEF_STEREO_COUNT>
0

> <PUBCHEM_ISOTOPIC_ATOM_COUNT>
0

> <PUBCHEM_COMPONENT_COUNT>
1

> <PUBCHEM_CACTVS_TAUTO_COUNT>
-1

> <PUBCHEM_COORDINATE_TYPE>
1
5
255

> <PUBCHEM_BONDANNOTATIONS>
19  23  3
18  2  3
25  27  8
25  30  8
27  32  8
28  29  8
28  34  8
29  33  8
20  3  3
30  35  8
32  36  8
33  38  8
34  39  8
35  36  8
37  40  8
37  41  8
38  39  8
21  4  3
40  43  8
41  42  8
42  44  8
43  44  8
22  5  6

$$$$
