25218459
  -OEChem-03202506462D

 45 47  0     1  0  0  0  0  0999 V2000
    2.8660   -5.2500    0.0000 Cl  0  0  0  0  0  0  0  0  0  0  0  0
    8.0622    1.7500    0.0000 O   0  0  0  0  0  0  0  0  0  0  0  0
    4.5981   -2.2500    0.0000 N   0  0  0  0  0  0  0  0  0  0  0  0
    6.3301    1.7500    0.0000 N   0  0  0  0  0  0  0  0  0  0  0  0
    3.7320   -3.7500    0.0000 N   0  0  0  0  0  0  0  0  0  0  0  0
    2.0000   -2.7500    0.0000 N   0  0  0  0  0  0  0  0  0  0  0  0
    4.5981   -1.2500    0.0000 C   0  0  2  0  0  0  0  0  0  0  0  0
    5.4641   -0.7500    0.0000 C   0  0  0  0  0  0  0  0  0  0  0  0
    5.4641    0.2500    0.0000 C   0  0  0  0  0  0  0  0  0  0  0  0
    3.7320   -0.7500    0.0000 C   0  0  0  0  0  0  0  0  0  0  0  0
    6.3301    0.7500    0.0000 C   0  0  0  0  0  0  0  0  0  0  0  0
    6.3301   -1.2500    0.0000 C   0  0  0  0  0  0  0  0  0  0  0  0
    7.1962    0.2500    0.0000 C   0  0  0  0  0  0  0  0  0  0  0  0
    7.1962   -0.7500    0.0000 C   0  0  0  0  0  0  0  0  0  0  0  0
    3.7320   -2.7500    0.0000 C   0  0  0  0  0  0  0  0  0  0  0  0
    7.1962    3.2500    0.0000 C   0  0  0  0  0  0  0  0  0  0  0  0
    7.1962    2.2500    0.0000 C   0  0  0  0  0  0  0  0  0  0  0  0
    8.0622    3.7500    0.0000 C   0  0  0  0  0  0  0  0  0  0  0  0
    8.0622    4.7500    0.0000 C   0  0  0  0  0  0  0  0  0  0  0  0
    6.3301    3.7500    0.0000 C   0  0  0  0  0  0  0  0  0  0  0  0
    2.8660   -2.2500    0.0000 C   0  0  0  0  0  0  0  0  0  0  0  0
    7.1962    5.2500    0.0000 C   0  0  0  0  0  0  0  0  0  0  0  0
    6.3301    4.7500    0.0000 C   0  0  0  0  0  0  0  0  0  0  0  0
    8.9282    5.2500    0.0000 C   0  0  0  0  0  0  0  0  0  0  0  0
    2.8660   -4.2500    0.0000 C   0  0  0  0  0  0  0  0  0  0  0  0
    2.0000   -3.7500    0.0000 C   0  0  0  0  0  0  0  0  0  0  0  0
    5.1350   -1.5600    0.0000 H   0  0  0  0  0  0  0  0  0  0  0  0
    4.9272    0.5600    0.0000 H   0  0  0  0  0  0  0  0  0  0  0  0
    4.0420   -0.2131    0.0000 H   0  0  0  0  0  0  0  0  0  0  0  0
    3.1951   -0.4400    0.0000 H   0  0  0  0  0  0  0  0  0  0  0  0
    3.4220   -1.2869    0.0000 H   0  0  0  0  0  0  0  0  0  0  0  0
    5.1350   -2.5600    0.0000 H   0  0  0  0  0  0  0  0  0  0  0  0
    6.3301   -1.8700    0.0000 H   0  0  0  0  0  0  0  0  0  0  0  0
    7.7331    0.5600    0.0000 H   0  0  0  0  0  0  0  0  0  0  0  0
    7.7331   -1.0600    0.0000 H   0  0  0  0  0  0  0  0  0  0  0  0
    5.7932    2.0600    0.0000 H   0  0  0  0  0  0  0  0  0  0  0  0
    8.5991    3.4400    0.0000 H   0  0  0  0  0  0  0  0  0  0  0  0
    5.7932    3.4400    0.0000 H   0  0  0  0  0  0  0  0  0  0  0  0
    2.8660   -1.6300    0.0000 H   0  0  0  0  0  0  0  0  0  0  0  0
    7.1962    5.8700    0.0000 H   0  0  0  0  0  0  0  0  0  0  0  0
    5.7932    5.0600    0.0000 H   0  0  0  0  0  0  0  0  0  0  0  0
    9.2382    4.7131    0.0000 H   0  0  0  0  0  0  0  0  0  0  0  0
    9.4651    5.5600    0.0000 H   0  0  0  0  0  0  0  0  0  0  0  0
    8.6182    5.7869    0.0000 H   0  0  0  0  0  0  0  0  0  0  0  0
    1.4631   -4.0600    0.0000 H   0  0  0  0  0  0  0  0  0  0  0  0
  1 25  1  0  0  0  0
  2 17  2  0  0  0  0
  7  3  1  1  0  0  0
  3 15  1  0  0  0  0
  3 32  1  0  0  0  0
  4 11  1  0  0  0  0
  4 17  1  0  0  0  0
  4 36  1  0  0  0  0
  5 15  1  0  0  0  0
  5 25  2  0  0  0  0
  6 21  1  0  0  0  0
  6 26  2  0  0  0  0
  7  8  1  0  0  0  0
  7 10  1  0  0  0  0
  7 27  1  0  0  0  0
  8  9  2  0  0  0  0
  8 12  1  0  0  0  0
  9 11  1  0  0  0  0
  9 28  1  0  0  0  0
 10 29  1  0  0  0  0
 10 30  1  0  0  0  0
 10 31  1  0  0  0  0
 11 13  2  0  0  0  0
 12 14  2  0  0  0  0
 12 33  1  0  0  0  0
 13 14  1  0  0  0  0
 13 34  1  0  0  0  0
 14 35  1  0  0  0  0
 15 21  2  0  0  0  0
 16 17  1  0  0  0  0
 16 18  1  0  0  0  0
 16 20  2  0  0  0  0
 18 19  2  0  0  0  0
 18 37  1  0  0  0  0
 19 22  1  0  0  0  0
 19 24  1  0  0  0  0
 20 23  1  0  0  0  0
 20 38  1  0  0  0  0
 21 39  1  0  0  0  0
 22 23  2  0  0  0  0
 22 40  1  0  0  0  0
 23 41  1  0  0  0  0
 24 42  1  0  0  0  0
 24 43  1  0  0  0  0
 24 44  1  0  0  0  0
 25 26  1  0  0  0  0
 26 45  1  0  0  0  0
M  END
> <PUBCHEM_COMPOUND_CID>
25218459

> <PUBCHEM_COMPOUND_CANONICALIZED>
1

> <PUBCHEM_CACTVS_COMPLEXITY>
463

> <PUBCHEM_CACTVS_HBOND_ACCEPTOR>
4

> <PUBCHEM_CACTVS_HBOND_DONOR>
2

> <PUBCHEM_CACTVS_ROTATABLE_BOND>
5

> <PUBCHEM_CACTVS_SUBSKEYS>
AAADceB7oAAEAAAAAAAAAAAAAAAAAAAAAAA8YIAAAAAAAAAB0AAAHgIQAAAADCrBmiQ/8JLIEACoAjd3dACCgC01EyAJyIEYdMiIYHLAnZHUIQholALIyacYiMCOAAACQAAAAAAAAASAAAAAAAAAAAAAAA==

> <PUBCHEM_IUPAC_OPENEYE_NAME>
N-[3-[(1S)-1-[(6-chloropyrazin-2-yl)amino]ethyl]phenyl]-3-methyl-benzamide

> <PUBCHEM_IUPAC_CAS_NAME>
N-[3-[(1S)-1-[(6-chloro-2-pyrazinyl)amino]ethyl]phenyl]-3-methylbenzamide

> <PUBCHEM_IUPAC_NAME_MARKUP>
<I>N</I>-[3-[(1<I>S</I>)-1-[(6-chloropyrazin-2-yl)amino]ethyl]phenyl]-3-methylbenzamide

> <PUBCHEM_IUPAC_NAME>
N-[3-[(1S)-1-[(6-chloropyrazin-2-yl)amino]ethyl]phenyl]-3-methylbenzamide

> <PUBCHEM_IUPAC_SYSTEMATIC_NAME>
N-[3-[(1S)-1-[(6-chloranylpyrazin-2-yl)amino]ethyl]phenyl]-3-methyl-benzamide

> <PUBCHEM_IUPAC_TRADITIONAL_NAME>
N-[3-[(1S)-1-[(6-chloropyrazin-2-yl)amino]ethyl]phenyl]-3-methyl-benzamide

> <PUBCHEM_IUPAC_INCHI>
InChI=1S/C20H19ClN4O/c1-13-5-3-7-16(9-13)20(26)24-17-8-4-6-15(10-17)14(2)23-19-12-22-11-18(21)25-19/h3-12,14H,1-2H3,(H,23,25)(H,24,26)/t14-/m0/s1

> <PUBCHEM_IUPAC_INCHIKEY>
OIANGKGOYKDGQV-AWEZNQCLSA-N

> <PUBCHEM_XLOGP3_AA>
4.2

> <PUBCHEM_EXACT_MASS>
366.1247389

> <PUBCHEM_MOLECULAR_FORMULA>
C20H19ClN4O

> <PUBCHEM_MOLECULAR_WEIGHT>
366.8

> <PUBCHEM_SMILES>
CC1=CC(=CC=C1)C(=O)NC2=CC=CC(=C2)[C@H](C)NC3=CN=CC(=N3)Cl

> <PUBCHEM_OPENEYE_CAN_SMILES>
CC1=CC(=CC=C1)C(=O)NC2=CC=CC(=C2)C(C)NC3=CN=CC(=N3)Cl

> <PUBCHEM_OPENEYE_ISO_SMILES>
CC1=CC(=CC=C1)C(=O)NC2=CC=CC(=C2)[C@H](C)NC3=CN=CC(=N3)Cl

> <PUBCHEM_CACTVS_TPSA>
66.9

> <PUBCHEM_MONOISOTOPIC_WEIGHT>
366.1247389

> <PUBCHEM_TOTAL_CHARGE>
0

> <PUBCHEM_HEAVY_ATOM_COUNT>
26

> <PUBCHEM_ATOM_DEF_STEREO_COUNT>
1

> <PUBCHEM_ATOM_UDEF_STEREO_COUNT>
0

> <PUBCHEM_BOND_DEF_STEREO_COUNT>
0

> <PUBCHEM_BOND_UDEF_STEREO_COUNT>
0

> <PUBCHEM_ISOTOPIC_ATOM_COUNT>
0

> <PUBCHEM_COMPONENT_COUNT>
1

> <PUBCHEM_CACTVS_TAUTO_COUNT>
-1

> <PUBCHEM_COORDINATE_TYPE>
1
5
255

> <PUBCHEM_BONDANNOTATIONS>
11  13  8
12  14  8
13  14  8
15  21  8
16  18  8
16  20  8
18  19  8
19  22  8
20  23  8
22  23  8
25  26  8
7  3  5
5  15  8
5  25  8
6  21  8
6  26  8
8  12  8
8  9  8
9  11  8

$$$$
