49830803
  -OEChem-03202501342D

 46 50  0     0  0  0  0  0  0999 V2000
    3.9694   -2.1153    0.0000 F   0  0  0  0  0  0  0  0  0  0  0  0
    7.3578   -2.8355    0.0000 F   0  0  0  0  0  0  0  0  0  0  0  0
    9.6339   -1.0765    0.0000 O   0  0  0  0  0  0  0  0  0  0  0  0
    2.0000    0.9058    0.0000 O   0  0  0  0  0  0  0  0  0  0  0  0
    7.0878    1.3355    0.0000 N   0  0  0  0  0  0  0  0  0  0  0  0
    3.5762    1.2423    0.0000 N   0  0  0  0  0  0  0  0  0  0  0  0
    6.2218    0.8355    0.0000 N   0  0  0  0  0  0  0  0  0  0  0  0
    8.6177    1.8355    0.0000 N   0  0  0  0  0  0  0  0  0  0  0  0
    8.0341    2.6402    0.0000 N   0  0  0  0  0  0  0  0  0  0  0  0
    3.4071   -0.3669    0.0000 N   0  0  0  0  0  0  0  0  0  0  0  0
    8.3447    0.0803    0.0000 C   0  0  0  0  0  0  0  0  0  0  0  0
    8.0341    1.0308    0.0000 C   0  0  0  0  0  0  0  0  0  0  0  0
    8.6554   -0.8703    0.0000 C   0  0  0  0  0  0  0  0  0  0  0  0
    9.2952    0.3909    0.0000 C   0  0  0  0  0  0  0  0  0  0  0  0
    7.3942   -0.2304    0.0000 C   0  0  0  0  0  0  0  0  0  0  0  0
    7.0878    2.3355    0.0000 C   0  0  0  0  0  0  0  0  0  0  0  0
    4.4898    0.8355    0.0000 C   0  0  0  0  0  0  0  0  0  0  0  0
    5.3558    1.3355    0.0000 C   0  0  0  0  0  0  0  0  0  0  0  0
    4.3852   -0.1590    0.0000 C   0  0  0  0  0  0  0  0  0  0  0  0
    6.2218    2.8355    0.0000 C   0  0  0  0  0  0  0  0  0  0  0  0
    5.3558    2.3355    0.0000 C   0  0  0  0  0  0  0  0  0  0  0  0
    2.9071    0.4991    0.0000 C   0  0  0  0  0  0  0  0  0  0  0  0
    5.1284   -0.8281    0.0000 C   0  0  0  0  0  0  0  0  0  0  0  0
    3.0769    2.1019    0.0000 C   0  0  0  0  0  0  0  0  0  0  0  0
    2.1048    1.8943    0.0000 C   0  0  0  0  0  0  0  0  0  0  0  0
    4.9205   -1.8063    0.0000 C   0  0  0  0  0  0  0  0  0  0  0  0
    6.0794   -0.5191    0.0000 C   0  0  0  0  0  0  0  0  0  0  0  0
    5.6636   -2.4754    0.0000 C   0  0  0  0  0  0  0  0  0  0  0  0
    6.8226   -1.1882    0.0000 C   0  0  0  0  0  0  0  0  0  0  0  0
    6.6147   -2.1664    0.0000 C   0  0  0  0  0  0  0  0  0  0  0  0
    8.0416   -0.9576    0.0000 H   0  0  0  0  0  0  0  0  0  0  0  0
    8.6348   -1.4899    0.0000 H   0  0  0  0  0  0  0  0  0  0  0  0
    9.4878   -0.1984    0.0000 H   0  0  0  0  0  0  0  0  0  0  0  0
    9.8846    0.5835    0.0000 H   0  0  0  0  0  0  0  0  0  0  0  0
    9.1026    0.9803    0.0000 H   0  0  0  0  0  0  0  0  0  0  0  0
    7.2016    0.3589    0.0000 H   0  0  0  0  0  0  0  0  0  0  0  0
    6.8049   -0.4230    0.0000 H   0  0  0  0  0  0  0  0  0  0  0  0
    7.5868   -0.8197    0.0000 H   0  0  0  0  0  0  0  0  0  0  0  0
    6.2218    3.4555    0.0000 H   0  0  0  0  0  0  0  0  0  0  0  0
    4.8188    2.6455    0.0000 H   0  0  0  0  0  0  0  0  0  0  0  0
    9.8265   -1.6658    0.0000 H   0  0  0  0  0  0  0  0  0  0  0  0
    3.3281    2.6687    0.0000 H   0  0  0  0  0  0  0  0  0  0  0  0
    1.6440    2.3092    0.0000 H   0  0  0  0  0  0  0  0  0  0  0  0
    6.2083    0.0873    0.0000 H   0  0  0  0  0  0  0  0  0  0  0  0
    5.5347   -3.0819    0.0000 H   0  0  0  0  0  0  0  0  0  0  0  0
    7.4122   -0.9967    0.0000 H   0  0  0  0  0  0  0  0  0  0  0  0
  1 26  1  0  0  0  0
  2 30  1  0  0  0  0
  3 13  1  0  0  0  0
  3 41  1  0  0  0  0
  4 22  1  0  0  0  0
  4 25  1  0  0  0  0
  5  7  1  0  0  0  0
  5 12  1  0  0  0  0
  5 16  1  0  0  0  0
  6 17  1  0  0  0  0
  6 22  1  0  0  0  0
  6 24  1  0  0  0  0
  7 18  2  0  0  0  0
  8  9  1  0  0  0  0
  8 12  2  0  0  0  0
  9 16  2  0  0  0  0
 10 19  1  0  0  0  0
 10 22  2  0  0  0  0
 11 12  1  0  0  0  0
 11 13  1  0  0  0  0
 11 14  1  0  0  0  0
 11 15  1  0  0  0  0
 13 31  1  0  0  0  0
 13 32  1  0  0  0  0
 14 33  1  0  0  0  0
 14 34  1  0  0  0  0
 14 35  1  0  0  0  0
 15 36  1  0  0  0  0
 15 37  1  0  0  0  0
 15 38  1  0  0  0  0
 16 20  1  0  0  0  0
 17 18  1  0  0  0  0
 17 19  2  0  0  0  0
 18 21  1  0  0  0  0
 19 23  1  0  0  0  0
 20 21  2  0  0  0  0
 20 39  1  0  0  0  0
 21 40  1  0  0  0  0
 23 26  2  0  0  0  0
 23 27  1  0  0  0  0
 24 25  2  0  0  0  0
 24 42  1  0  0  0  0
 25 43  1  0  0  0  0
 26 28  1  0  0  0  0
 27 29  2  0  0  0  0
 27 44  1  0  0  0  0
 28 30  2  0  0  0  0
 28 45  1  0  0  0  0
 29 30  1  0  0  0  0
 29 46  1  0  0  0  0
M  END
> <PUBCHEM_COMPOUND_CID>
49830803

> <PUBCHEM_COMPOUND_CANONICALIZED>
1

> <PUBCHEM_CACTVS_COMPLEXITY>
630

> <PUBCHEM_CACTVS_HBOND_ACCEPTOR>
8

> <PUBCHEM_CACTVS_HBOND_DONOR>
1

> <PUBCHEM_CACTVS_ROTATABLE_BOND>
4

> <PUBCHEM_CACTVS_SUBSKEYS>
AAADceB7sYAAAAAAAAAAAAAAAAAAAWLFgAA8QAAAAAAWAFgB/gAAHwAICAAADgjhnw4/tJ8MHkCqAz539ASSjC87UqAd2CC7dJiOeOLA2bGd4AhqjgLYyCcQgMAOAAAAAAAAAAAAAAAAAAAAAAAAAAAAAA==

> <PUBCHEM_IUPAC_OPENEYE_NAME>
2-[6-[6-(2,4-difluorophenyl)imidazo[2,1-b]oxazol-5-yl]-[1,2,4]triazolo[4,3-b]pyridazin-3-yl]-2-methyl-propan-1-ol

> <PUBCHEM_IUPAC_CAS_NAME>
2-[6-[6-(2,4-difluorophenyl)-5-imidazo[2,1-b]oxazolyl]-[1,2,4]triazolo[4,3-b]pyridazin-3-yl]-2-methyl-1-propanol

> <PUBCHEM_IUPAC_NAME_MARKUP>
2-[6-[6-(2,4-difluorophenyl)imidazo[2,1-b][1,3]oxazol-5-yl]-[1,2,4]triazolo[4,3-b]pyridazin-3-yl]-2-methylpropan-1-ol

> <PUBCHEM_IUPAC_NAME>
2-[6-[6-(2,4-difluorophenyl)imidazo[2,1-b][1,3]oxazol-5-yl]-[1,2,4]triazolo[4,3-b]pyridazin-3-yl]-2-methylpropan-1-ol

> <PUBCHEM_IUPAC_SYSTEMATIC_NAME>
2-[6-[6-[2,4-bis(fluoranyl)phenyl]imidazo[2,1-b][1,3]oxazol-5-yl]-[1,2,4]triazolo[4,3-b]pyridazin-3-yl]-2-methyl-propan-1-ol

> <PUBCHEM_IUPAC_TRADITIONAL_NAME>
2-[6-[6-(2,4-difluorophenyl)imidazo[2,1-b]oxazol-5-yl]-[1,2,4]triazolo[4,3-b]pyridazin-3-yl]-2-methyl-propan-1-ol

> <PUBCHEM_IUPAC_INCHI>
InChI=1S/C20H16F2N6O2/c1-20(2,10-29)18-25-24-15-6-5-14(26-28(15)18)17-16(23-19-27(17)7-8-30-19)12-4-3-11(21)9-13(12)22/h3-9,29H,10H2,1-2H3

> <PUBCHEM_IUPAC_INCHIKEY>
KOZOJNNVQMRVIW-UHFFFAOYSA-N

> <PUBCHEM_XLOGP3_AA>
3.1

> <PUBCHEM_EXACT_MASS>
410.13028010

> <PUBCHEM_MOLECULAR_FORMULA>
C20H16F2N6O2

> <PUBCHEM_MOLECULAR_WEIGHT>
410.4

> <PUBCHEM_SMILES>
CC(C)(CO)C1=NN=C2N1N=C(C=C2)C3=C(N=C4N3C=CO4)C5=C(C=C(C=C5)F)F

> <PUBCHEM_OPENEYE_CAN_SMILES>
CC(C)(CO)C1=NN=C2N1N=C(C=C2)C3=C(N=C4N3C=CO4)C5=C(C=C(C=C5)F)F

> <PUBCHEM_OPENEYE_ISO_SMILES>
CC(C)(CO)C1=NN=C2N1N=C(C=C2)C3=C(N=C4N3C=CO4)C5=C(C=C(C=C5)F)F

> <PUBCHEM_CACTVS_TPSA>
93.8

> <PUBCHEM_MONOISOTOPIC_WEIGHT>
410.13028010

> <PUBCHEM_TOTAL_CHARGE>
0

> <PUBCHEM_HEAVY_ATOM_COUNT>
30

> <PUBCHEM_ATOM_DEF_STEREO_COUNT>
0

> <PUBCHEM_ATOM_UDEF_STEREO_COUNT>
0

> <PUBCHEM_BOND_DEF_STEREO_COUNT>
0

> <PUBCHEM_BOND_UDEF_STEREO_COUNT>
0

> <PUBCHEM_ISOTOPIC_ATOM_COUNT>
0

> <PUBCHEM_COMPONENT_COUNT>
1

> <PUBCHEM_CACTVS_TAUTO_COUNT>
-1

> <PUBCHEM_COORDINATE_TYPE>
1
5
255

> <PUBCHEM_BONDANNOTATIONS>
10  19  8
10  22  8
16  20  8
17  19  8
18  21  8
20  21  8
23  26  8
23  27  8
24  25  8
26  28  8
27  29  8
28  30  8
29  30  8
4  22  8
4  25  8
5  12  8
5  16  8
5  7  8
6  17  8
6  22  8
6  24  8
7  18  8
8  12  8
8  9  8
9  16  8

$$$$
