49830554
  -OEChem-03202504042D

 33 35  0     0  0  0  0  0  0999 V2000
    3.2320   -0.1351    0.0000 Cl  0  0  0  0  0  0  0  0  0  0  0  0
    2.0000   -1.0011    0.0000 Cl  0  0  0  0  0  0  0  0  0  0  0  0
    8.6260    3.4040    0.0000 Cl  0  0  0  0  0  0  0  0  0  0  0  0
    5.5443   -2.8058    0.0000 S   0  0  0  0  0  0  0  0  0  0  0  0
    4.6982    1.0433    0.0000 O   0  0  0  0  0  0  0  0  0  0  0  0
    7.6279   -1.1351    0.0000 O   0  0  0  0  0  0  0  0  0  0  0  0
    5.8550   -0.2458    0.0000 N   0  0  0  0  0  0  0  0  0  0  0  0
    7.6279   -2.8671    0.0000 N   0  0  0  0  0  0  0  0  0  0  0  0
    4.5981   -1.5011    0.0000 C   0  0  0  0  0  0  0  0  0  0  0  0
    5.5443   -1.1964    0.0000 C   0  0  0  0  0  0  0  0  0  0  0  0
    4.5981   -2.5011    0.0000 C   0  0  0  0  0  0  0  0  0  0  0  0
    6.1279   -2.0011    0.0000 C   0  0  0  0  0  0  0  0  0  0  0  0
    3.7320   -1.0011    0.0000 C   0  0  0  0  0  0  0  0  0  0  0  0
    3.7320   -3.0011    0.0000 C   0  0  0  0  0  0  0  0  0  0  0  0
    2.8660   -1.5011    0.0000 C   0  0  0  0  0  0  0  0  0  0  0  0
    2.8660   -2.5011    0.0000 C   0  0  0  0  0  0  0  0  0  0  0  0
    5.6487    0.7327    0.0000 C   0  0  0  0  0  0  0  0  0  0  0  0
    6.3930    1.4005    0.0000 C   0  0  0  0  0  0  0  0  0  0  0  0
    7.1279   -2.0011    0.0000 C   0  0  0  0  0  0  0  0  0  0  0  0
    6.1868    2.3790    0.0000 C   0  0  0  0  0  0  0  0  0  0  0  0
    7.3436    1.0898    0.0000 C   0  0  0  0  0  0  0  0  0  0  0  0
    6.9311    3.0469    0.0000 C   0  0  0  0  0  0  0  0  0  0  0  0
    8.0879    1.7577    0.0000 C   0  0  0  0  0  0  0  0  0  0  0  0
    7.8816    2.7362    0.0000 C   0  0  0  0  0  0  0  0  0  0  0  0
    6.4616   -0.1180    0.0000 H   0  0  0  0  0  0  0  0  0  0  0  0
    3.7320   -3.6211    0.0000 H   0  0  0  0  0  0  0  0  0  0  0  0
    2.3291   -2.8111    0.0000 H   0  0  0  0  0  0  0  0  0  0  0  0
    5.5975    2.5716    0.0000 H   0  0  0  0  0  0  0  0  0  0  0  0
    7.4714    0.4832    0.0000 H   0  0  0  0  0  0  0  0  0  0  0  0
    6.8033    3.6535    0.0000 H   0  0  0  0  0  0  0  0  0  0  0  0
    8.6772    1.5651    0.0000 H   0  0  0  0  0  0  0  0  0  0  0  0
    8.2479   -2.8671    0.0000 H   0  0  0  0  0  0  0  0  0  0  0  0
    7.3179   -3.4040    0.0000 H   0  0  0  0  0  0  0  0  0  0  0  0
  1 13  1  0  0  0  0
  2 15  1  0  0  0  0
  3 24  1  0  0  0  0
  4 11  1  0  0  0  0
  4 12  1  0  0  0  0
  5 17  2  0  0  0  0
  6 19  2  0  0  0  0
  7 10  1  0  0  0  0
  7 17  1  0  0  0  0
  7 25  1  0  0  0  0
  8 19  1  0  0  0  0
  8 32  1  0  0  0  0
  8 33  1  0  0  0  0
  9 10  1  0  0  0  0
  9 11  2  0  0  0  0
  9 13  1  0  0  0  0
 10 12  2  0  0  0  0
 11 14  1  0  0  0  0
 12 19  1  0  0  0  0
 13 15  2  0  0  0  0
 14 16  2  0  0  0  0
 14 26  1  0  0  0  0
 15 16  1  0  0  0  0
 16 27  1  0  0  0  0
 17 18  1  0  0  0  0
 18 20  2  0  0  0  0
 18 21  1  0  0  0  0
 20 22  1  0  0  0  0
 20 28  1  0  0  0  0
 21 23  2  0  0  0  0
 21 29  1  0  0  0  0
 22 24  2  0  0  0  0
 22 30  1  0  0  0  0
 23 24  1  0  0  0  0
 23 31  1  0  0  0  0
M  END
> <PUBCHEM_COMPOUND_CID>
49830554

> <PUBCHEM_COMPOUND_CANONICALIZED>
1

> <PUBCHEM_CACTVS_COMPLEXITY>
502

> <PUBCHEM_CACTVS_HBOND_ACCEPTOR>
3

> <PUBCHEM_CACTVS_HBOND_DONOR>
2

> <PUBCHEM_CACTVS_ROTATABLE_BOND>
3

> <PUBCHEM_CACTVS_SUBSKEYS>
AAADccB7MABGAAAAAAAAAAAAAAAAASAAAAAwYAAAAAAAAEgB9AAAHgYQAAAADAqB2CAwwcLAAAiMAiVSUACDAIAlDRBIil0ARsgIIDrh15GEIYxghADoyccYiICOBAIAIBAFAAQIBABAIAoACAAAAAAAAA==

> <PUBCHEM_IUPAC_OPENEYE_NAME>
4,5-dichloro-3-[(4-chlorobenzoyl)amino]benzothiophene-2-carboxamide

> <PUBCHEM_IUPAC_CAS_NAME>
4,5-dichloro-3-[[(4-chlorophenyl)-oxomethyl]amino]-1-benzothiophene-2-carboxamide

> <PUBCHEM_IUPAC_NAME_MARKUP>
4,5-dichloro-3-[(4-chlorobenzoyl)amino]-1-benzothiophene-2-carboxamide

> <PUBCHEM_IUPAC_NAME>
4,5-dichloro-3-[(4-chlorobenzoyl)amino]-1-benzothiophene-2-carboxamide

> <PUBCHEM_IUPAC_SYSTEMATIC_NAME>
4,5-bis(chloranyl)-3-[(4-chlorophenyl)carbonylamino]-1-benzothiophene-2-carboxamide

> <PUBCHEM_IUPAC_TRADITIONAL_NAME>
4,5-dichloro-3-[(4-chlorobenzoyl)amino]benzothiophene-2-carboxamide

> <PUBCHEM_IUPAC_INCHI>
InChI=1S/C16H9Cl3N2O2S/c17-8-3-1-7(2-4-8)16(23)21-13-11-10(24-14(13)15(20)22)6-5-9(18)12(11)19/h1-6H,(H2,20,22)(H,21,23)

> <PUBCHEM_IUPAC_INCHIKEY>
YKJSWMAVAKRUAN-UHFFFAOYSA-N

> <PUBCHEM_XLOGP3_AA>
5.4

> <PUBCHEM_EXACT_MASS>
397.945032

> <PUBCHEM_MOLECULAR_FORMULA>
C16H9Cl3N2O2S

> <PUBCHEM_MOLECULAR_WEIGHT>
399.7

> <PUBCHEM_SMILES>
C1=CC(=CC=C1C(=O)NC2=C(SC3=C2C(=C(C=C3)Cl)Cl)C(=O)N)Cl

> <PUBCHEM_OPENEYE_CAN_SMILES>
C1=CC(=CC=C1C(=O)NC2=C(SC3=C2C(=C(C=C3)Cl)Cl)C(=O)N)Cl

> <PUBCHEM_OPENEYE_ISO_SMILES>
C1=CC(=CC=C1C(=O)NC2=C(SC3=C2C(=C(C=C3)Cl)Cl)C(=O)N)Cl

> <PUBCHEM_CACTVS_TPSA>
100

> <PUBCHEM_MONOISOTOPIC_WEIGHT>
397.945032

> <PUBCHEM_TOTAL_CHARGE>
0

> <PUBCHEM_HEAVY_ATOM_COUNT>
24

> <PUBCHEM_ATOM_DEF_STEREO_COUNT>
0

> <PUBCHEM_ATOM_UDEF_STEREO_COUNT>
0

> <PUBCHEM_BOND_DEF_STEREO_COUNT>
0

> <PUBCHEM_BOND_UDEF_STEREO_COUNT>
0

> <PUBCHEM_ISOTOPIC_ATOM_COUNT>
0

> <PUBCHEM_COMPONENT_COUNT>
1

> <PUBCHEM_CACTVS_TAUTO_COUNT>
-1

> <PUBCHEM_COORDINATE_TYPE>
1
5
255

> <PUBCHEM_BONDANNOTATIONS>
10  12  8
11  14  8
13  15  8
14  16  8
15  16  8
18  20  8
18  21  8
20  22  8
21  23  8
22  24  8
23  24  8
4  11  8
4  12  8
9  10  8
9  11  8
9  13  8

$$$$
