49830645
  -OEChem-03202504142D

 71 74  0     0  0  0  0  0  0999 V2000
    9.0635   -1.2384    0.0000 O   0  0  0  0  0  0  0  0  0  0  0  0
    5.5717    1.4982    0.0000 O   0  0  0  0  0  0  0  0  0  0  0  0
    5.4672   -1.4963    0.0000 N   0  0  0  0  0  0  0  0  0  0  0  0
    4.4890   -1.7042    0.0000 N   0  0  0  0  0  0  0  0  0  0  0  0
    6.4378   -0.0018    0.0000 N   0  0  0  0  0  0  0  0  0  0  0  0
    9.5987   -2.8856    0.0000 N   0  0  0  0  0  0  0  0  0  0  0  0
    7.3038    1.4982    0.0000 N   0  0  0  0  0  0  0  0  0  0  0  0
   12.2440   -2.9367    0.0000 N   0  0  0  0  0  0  0  0  0  0  0  0
    2.9945   -0.7336    0.0000 C   0  0  0  0  0  0  0  0  0  0  0  0
    3.9890   -0.8382    0.0000 C   0  0  0  0  0  0  0  0  0  0  0  0
    2.0000   -0.6291    0.0000 C   0  0  0  0  0  0  0  0  0  0  0  0
    2.8900   -1.7282    0.0000 C   0  0  0  0  0  0  0  0  0  0  0  0
    3.0990    0.2609    0.0000 C   0  0  0  0  0  0  0  0  0  0  0  0
    4.6582   -0.0950    0.0000 C   0  0  0  0  0  0  0  0  0  0  0  0
    5.5717   -0.5018    0.0000 C   0  0  0  0  0  0  0  0  0  0  0  0
    6.2103   -2.1654    0.0000 C   0  0  0  0  0  0  0  0  0  0  0  0
    7.1614   -1.8564    0.0000 C   0  0  0  0  0  0  0  0  0  0  0  0
    7.9045   -2.5255    0.0000 C   0  0  0  0  0  0  0  0  0  0  0  0
    6.0024   -3.1436    0.0000 C   0  0  0  0  0  0  0  0  0  0  0  0
    8.8556   -2.2165    0.0000 C   0  0  0  0  0  0  0  0  0  0  0  0
   10.5498   -2.5766    0.0000 C   0  0  0  0  0  0  0  0  0  0  0  0
    7.6966   -3.5037    0.0000 C   0  0  0  0  0  0  0  0  0  0  0  0
    6.7456   -3.8127    0.0000 C   0  0  0  0  0  0  0  0  0  0  0  0
    6.4378    0.9982    0.0000 C   0  0  0  0  0  0  0  0  0  0  0  0
    9.3908   -3.8638    0.0000 C   0  0  0  0  0  0  0  0  0  0  0  0
   11.2929   -3.2457    0.0000 C   0  0  0  0  0  0  0  0  0  0  0  0
    7.3038    2.4982    0.0000 C   0  0  0  0  0  0  0  0  0  0  0  0
    8.1698    2.9982    0.0000 C   0  0  0  0  0  0  0  0  0  0  0  0
   10.1340   -4.5329    0.0000 C   0  0  0  0  0  0  0  0  0  0  0  0
    8.1698    3.9982    0.0000 C   0  0  0  0  0  0  0  0  0  0  0  0
    6.4378    2.9982    0.0000 C   0  0  0  0  0  0  0  0  0  0  0  0
    9.0637    2.4636    0.0000 C   0  0  0  0  0  0  0  0  0  0  0  0
    7.3038    4.4982    0.0000 C   0  0  0  0  0  0  0  0  0  0  0  0
    6.4378    3.9982    0.0000 C   0  0  0  0  0  0  0  0  0  0  0  0
    9.0637    4.5329    0.0000 C   0  0  0  0  0  0  0  0  0  0  0  0
    9.9698    2.9774    0.0000 C   0  0  0  0  0  0  0  0  0  0  0  0
    9.9698    4.0191    0.0000 C   0  0  0  0  0  0  0  0  0  0  0  0
    2.0648   -0.0125    0.0000 H   0  0  0  0  0  0  0  0  0  0  0  0
    1.3834   -0.5643    0.0000 H   0  0  0  0  0  0  0  0  0  0  0  0
    1.9352   -1.2457    0.0000 H   0  0  0  0  0  0  0  0  0  0  0  0
    2.2734   -1.6634    0.0000 H   0  0  0  0  0  0  0  0  0  0  0  0
    2.8252   -2.3448    0.0000 H   0  0  0  0  0  0  0  0  0  0  0  0
    3.5066   -1.7930    0.0000 H   0  0  0  0  0  0  0  0  0  0  0  0
    3.7156    0.1961    0.0000 H   0  0  0  0  0  0  0  0  0  0  0  0
    3.1639    0.8775    0.0000 H   0  0  0  0  0  0  0  0  0  0  0  0
    2.4824    0.3257    0.0000 H   0  0  0  0  0  0  0  0  0  0  0  0
    4.5293    0.5114    0.0000 H   0  0  0  0  0  0  0  0  0  0  0  0
    6.9747   -0.3118    0.0000 H   0  0  0  0  0  0  0  0  0  0  0  0
    7.2903   -1.2499    0.0000 H   0  0  0  0  0  0  0  0  0  0  0  0
    5.4128   -3.3351    0.0000 H   0  0  0  0  0  0  0  0  0  0  0  0
   11.0384   -2.1949    0.0000 H   0  0  0  0  0  0  0  0  0  0  0  0
   10.2587   -2.0292    0.0000 H   0  0  0  0  0  0  0  0  0  0  0  0
    8.1574   -3.9185    0.0000 H   0  0  0  0  0  0  0  0  0  0  0  0
    6.6167   -4.4191    0.0000 H   0  0  0  0  0  0  0  0  0  0  0  0
    8.8160   -3.6315    0.0000 H   0  0  0  0  0  0  0  0  0  0  0  0
    9.0623   -4.3896    0.0000 H   0  0  0  0  0  0  0  0  0  0  0  0
   10.8044   -3.6274    0.0000 H   0  0  0  0  0  0  0  0  0  0  0  0
   11.5840   -3.7932    0.0000 H   0  0  0  0  0  0  0  0  0  0  0  0
    7.8407    1.1882    0.0000 H   0  0  0  0  0  0  0  0  0  0  0  0
    9.7191   -4.9937    0.0000 H   0  0  0  0  0  0  0  0  0  0  0  0
   10.5947   -4.9478    0.0000 H   0  0  0  0  0  0  0  0  0  0  0  0
   10.5488   -4.0722    0.0000 H   0  0  0  0  0  0  0  0  0  0  0  0
    5.9008    2.6882    0.0000 H   0  0  0  0  0  0  0  0  0  0  0  0
    9.0566    1.8436    0.0000 H   0  0  0  0  0  0  0  0  0  0  0  0
    7.3038    5.1182    0.0000 H   0  0  0  0  0  0  0  0  0  0  0  0
    5.9008    4.3082    0.0000 H   0  0  0  0  0  0  0  0  0  0  0  0
    9.0566    5.1529    0.0000 H   0  0  0  0  0  0  0  0  0  0  0  0
   12.7047   -3.3516    0.0000 H   0  0  0  0  0  0  0  0  0  0  0  0
   12.3729   -2.3303    0.0000 H   0  0  0  0  0  0  0  0  0  0  0  0
   10.5055    2.6654    0.0000 H   0  0  0  0  0  0  0  0  0  0  0  0
   10.5055    4.3311    0.0000 H   0  0  0  0  0  0  0  0  0  0  0  0
  1 20  2  0  0  0  0
  2 24  2  0  0  0  0
  3  4  1  0  0  0  0
  3 15  1  0  0  0  0
  3 16  1  0  0  0  0
  4 10  2  0  0  0  0
  5 15  1  0  0  0  0
  5 24  1  0  0  0  0
  5 48  1  0  0  0  0
  6 20  1  0  0  0  0
  6 21  1  0  0  0  0
  6 25  1  0  0  0  0
  7 24  1  0  0  0  0
  7 27  1  0  0  0  0
  7 59  1  0  0  0  0
  8 26  1  0  0  0  0
  8 68  1  0  0  0  0
  8 69  1  0  0  0  0
  9 10  1  0  0  0  0
  9 11  1  0  0  0  0
  9 12  1  0  0  0  0
  9 13  1  0  0  0  0
 10 14  1  0  0  0  0
 11 38  1  0  0  0  0
 11 39  1  0  0  0  0
 11 40  1  0  0  0  0
 12 41  1  0  0  0  0
 12 42  1  0  0  0  0
 12 43  1  0  0  0  0
 13 44  1  0  0  0  0
 13 45  1  0  0  0  0
 13 46  1  0  0  0  0
 14 15  2  0  0  0  0
 14 47  1  0  0  0  0
 16 17  1  0  0  0  0
 16 19  2  0  0  0  0
 17 18  2  0  0  0  0
 17 49  1  0  0  0  0
 18 20  1  0  0  0  0
 18 22  1  0  0  0  0
 19 23  1  0  0  0  0
 19 50  1  0  0  0  0
 21 26  1  0  0  0  0
 21 51  1  0  0  0  0
 21 52  1  0  0  0  0
 22 23  2  0  0  0  0
 22 53  1  0  0  0  0
 23 54  1  0  0  0  0
 25 29  1  0  0  0  0
 25 55  1  0  0  0  0
 25 56  1  0  0  0  0
 26 57  1  0  0  0  0
 26 58  1  0  0  0  0
 27 28  1  0  0  0  0
 27 31  2  0  0  0  0
 28 30  1  0  0  0  0
 28 32  2  0  0  0  0
 29 60  1  0  0  0  0
 29 61  1  0  0  0  0
 29 62  1  0  0  0  0
 30 33  1  0  0  0  0
 30 35  2  0  0  0  0
 31 34  1  0  0  0  0
 31 63  1  0  0  0  0
 32 36  1  0  0  0  0
 32 64  1  0  0  0  0
 33 34  2  0  0  0  0
 33 65  1  0  0  0  0
 34 66  1  0  0  0  0
 35 37  1  0  0  0  0
 35 67  1  0  0  0  0
 36 37  2  0  0  0  0
 36 70  1  0  0  0  0
 37 71  1  0  0  0  0
M  END
> <PUBCHEM_COMPOUND_CID>
49830645

> <PUBCHEM_COMPOUND_CANONICALIZED>
1

> <PUBCHEM_CACTVS_COMPLEXITY>
770

> <PUBCHEM_CACTVS_HBOND_ACCEPTOR>
4

> <PUBCHEM_CACTVS_HBOND_DONOR>
3

> <PUBCHEM_CACTVS_ROTATABLE_BOND>
8

> <PUBCHEM_CACTVS_SUBSKEYS>
AAADcfB7sAAAAAAAAAAAAAAAAAAAAWAAAAAwYMAAAAAAAADB1AAAHgAYAAAADgjBngQz8NPIAACqAydydACSBCMlAgAdmKE4ZNiIYHLA1dGUpQh4nwLIyacciICPgAAAQAASAAAAAACAACQAAAAAAAAAAA==

> <PUBCHEM_IUPAC_OPENEYE_NAME>
N-(2-aminoethyl)-3-[3-tert-butyl-5-(1-naphthylcarbamoylamino)pyrazol-1-yl]-N-ethyl-benzamide

> <PUBCHEM_IUPAC_CAS_NAME>
N-(2-aminoethyl)-3-[3-tert-butyl-5-[[(1-naphthalenylamino)-oxomethyl]amino]-1-pyrazolyl]-N-ethylbenzamide

> <PUBCHEM_IUPAC_NAME_MARKUP>
<I>N</I>-(2-aminoethyl)-3-[3-<I>tert</I>-butyl-5-(naphthalen-1-ylcarbamoylamino)pyrazol-1-yl]-<I>N</I>-ethylbenzamide

> <PUBCHEM_IUPAC_NAME>
N-(2-aminoethyl)-3-[3-tert-butyl-5-(naphthalen-1-ylcarbamoylamino)pyrazol-1-yl]-N-ethylbenzamide

> <PUBCHEM_IUPAC_SYSTEMATIC_NAME>
N-(2-azanylethyl)-3-[3-tert-butyl-5-(naphthalen-1-ylcarbamoylamino)pyrazol-1-yl]-N-ethyl-benzamide

> <PUBCHEM_IUPAC_TRADITIONAL_NAME>
N-(2-aminoethyl)-3-[3-tert-butyl-5-(1-naphthylcarbamoylamino)pyrazol-1-yl]-N-ethyl-benzamide

> <PUBCHEM_IUPAC_INCHI>
InChI=1S/C29H34N6O2/c1-5-34(17-16-30)27(36)21-12-8-13-22(18-21)35-26(19-25(33-35)29(2,3)4)32-28(37)31-24-15-9-11-20-10-6-7-14-23(20)24/h6-15,18-19H,5,16-17,30H2,1-4H3,(H2,31,32,37)

> <PUBCHEM_IUPAC_INCHIKEY>
UGUZOLHBLLTLBA-UHFFFAOYSA-N

> <PUBCHEM_XLOGP3_AA>
4.6

> <PUBCHEM_EXACT_MASS>
498.27432435

> <PUBCHEM_MOLECULAR_FORMULA>
C29H34N6O2

> <PUBCHEM_MOLECULAR_WEIGHT>
498.6

> <PUBCHEM_SMILES>
CCN(CCN)C(=O)C1=CC(=CC=C1)N2C(=CC(=N2)C(C)(C)C)NC(=O)NC3=CC=CC4=CC=CC=C43

> <PUBCHEM_OPENEYE_CAN_SMILES>
CCN(CCN)C(=O)C1=CC(=CC=C1)N2C(=CC(=N2)C(C)(C)C)NC(=O)NC3=CC=CC4=CC=CC=C43

> <PUBCHEM_OPENEYE_ISO_SMILES>
CCN(CCN)C(=O)C1=CC(=CC=C1)N2C(=CC(=N2)C(C)(C)C)NC(=O)NC3=CC=CC4=CC=CC=C43

> <PUBCHEM_CACTVS_TPSA>
105

> <PUBCHEM_MONOISOTOPIC_WEIGHT>
498.27432435

> <PUBCHEM_TOTAL_CHARGE>
0

> <PUBCHEM_HEAVY_ATOM_COUNT>
37

> <PUBCHEM_ATOM_DEF_STEREO_COUNT>
0

> <PUBCHEM_ATOM_UDEF_STEREO_COUNT>
0

> <PUBCHEM_BOND_DEF_STEREO_COUNT>
0

> <PUBCHEM_BOND_UDEF_STEREO_COUNT>
0

> <PUBCHEM_ISOTOPIC_ATOM_COUNT>
0

> <PUBCHEM_COMPONENT_COUNT>
1

> <PUBCHEM_CACTVS_TAUTO_COUNT>
-1

> <PUBCHEM_COORDINATE_TYPE>
1
5
255

> <PUBCHEM_BONDANNOTATIONS>
10  14  8
14  15  8
16  17  8
16  19  8
17  18  8
18  22  8
19  23  8
22  23  8
27  28  8
27  31  8
28  30  8
28  32  8
3  15  8
3  4  8
30  33  8
30  35  8
31  34  8
32  36  8
33  34  8
35  37  8
36  37  8
4  10  8

$$$$
