46224684
  -OEChem-03202507082D

 50 55  0     0  0  0  0  0  0999 V2000
    8.8697   -2.4612    0.0000 S   0  0  0  0  0  0  0  0  0  0  0  0
    4.7580    1.4543    0.0000 N   0  0  0  0  0  0  0  0  0  0  0  0
    9.8772   -0.6824    0.0000 N   0  0  0  0  0  0  0  0  0  0  0  0
    6.8977    2.8554    0.0000 N   0  0  0  0  0  0  0  0  0  0  0  0
   10.4608    0.1224    0.0000 N   0  0  0  0  0  0  0  0  0  0  0  0
    5.6085    4.0121    0.0000 N   0  0  0  0  0  0  0  0  0  0  0  0
    2.3662    0.3234    0.0000 N   0  0  0  0  0  0  0  0  0  0  0  0
    7.2549    4.5502    0.0000 N   0  0  0  0  0  0  0  0  0  0  0  0
    6.3329    1.1224    0.0000 C   0  0  0  0  0  0  0  0  0  0  0  0
    7.1989    0.6224    0.0000 C   0  0  0  0  0  0  0  0  0  0  0  0
    5.2514    2.3173    0.0000 C   0  0  0  0  0  0  0  0  0  0  0  0
    6.2299    2.1111    0.0000 C   0  0  0  0  0  0  0  0  0  0  0  0
    5.4251    0.7172    0.0000 C   0  0  0  0  0  0  0  0  0  0  0  0
    8.0650   -0.8776    0.0000 C   0  0  0  0  0  0  0  0  0  0  0  0
    3.7639    1.3463    0.0000 C   0  0  0  0  0  0  0  0  0  0  0  0
    8.9310   -0.3776    0.0000 C   0  0  0  0  0  0  0  0  0  0  0  0
    7.1989   -0.3776    0.0000 C   0  0  0  0  0  0  0  0  0  0  0  0
    8.9310    0.6224    0.0000 C   0  0  0  0  0  0  0  0  0  0  0  0
    8.0650    1.1224    0.0000 C   0  0  0  0  0  0  0  0  0  0  0  0
    8.0650   -1.8776    0.0000 C   0  0  0  0  0  0  0  0  0  0  0  0
    3.3603    0.4313    0.0000 C   0  0  0  0  0  0  0  0  0  0  0  0
    4.9407    3.2678    0.0000 C   0  0  0  0  0  0  0  0  0  0  0  0
    9.8772    0.9271    0.0000 C   0  0  0  0  0  0  0  0  0  0  0  0
    7.2602   -2.4612    0.0000 C   0  0  0  0  0  0  0  0  0  0  0  0
    7.5650   -3.4075    0.0000 C   0  0  0  0  0  0  0  0  0  0  0  0
    8.5650   -3.4075    0.0000 C   0  0  0  0  0  0  0  0  0  0  0  0
    6.5870    3.8059    0.0000 C   0  0  0  0  0  0  0  0  0  0  0  0
    7.0650   -4.2735    0.0000 C   0  0  0  0  0  0  0  0  0  0  0  0
    9.0650   -4.2735    0.0000 C   0  0  0  0  0  0  0  0  0  0  0  0
    7.5650   -5.1395    0.0000 C   0  0  0  0  0  0  0  0  0  0  0  0
    8.5650   -5.1395    0.0000 C   0  0  0  0  0  0  0  0  0  0  0  0
    5.2973    0.1106    0.0000 H   0  0  0  0  0  0  0  0  0  0  0  0
    3.8050    1.9649    0.0000 H   0  0  0  0  0  0  0  0  0  0  0  0
    3.1618    1.4942    0.0000 H   0  0  0  0  0  0  0  0  0  0  0  0
    6.6620   -0.6876    0.0000 H   0  0  0  0  0  0  0  0  0  0  0  0
    8.0650    1.7424    0.0000 H   0  0  0  0  0  0  0  0  0  0  0  0
    3.3192   -0.1873    0.0000 H   0  0  0  0  0  0  0  0  0  0  0  0
    3.9624    0.2834    0.0000 H   0  0  0  0  0  0  0  0  0  0  0  0
    4.3340    3.3957    0.0000 H   0  0  0  0  0  0  0  0  0  0  0  0
   10.0698   -1.2717    0.0000 H   0  0  0  0  0  0  0  0  0  0  0  0
   10.0698    1.5164    0.0000 H   0  0  0  0  0  0  0  0  0  0  0  0
    6.6709   -2.2686    0.0000 H   0  0  0  0  0  0  0  0  0  0  0  0
    6.4450   -4.2735    0.0000 H   0  0  0  0  0  0  0  0  0  0  0  0
    9.6850   -4.2735    0.0000 H   0  0  0  0  0  0  0  0  0  0  0  0
    2.1160   -0.2439    0.0000 H   0  0  0  0  0  0  0  0  0  0  0  0
    2.0000    0.8237    0.0000 H   0  0  0  0  0  0  0  0  0  0  0  0
    7.2550   -5.6765    0.0000 H   0  0  0  0  0  0  0  0  0  0  0  0
    8.8750   -5.6765    0.0000 H   0  0  0  0  0  0  0  0  0  0  0  0
    7.0623    5.1395    0.0000 H   0  0  0  0  0  0  0  0  0  0  0  0
    7.8616    4.4224    0.0000 H   0  0  0  0  0  0  0  0  0  0  0  0
  1 20  1  0  0  0  0
  1 26  1  0  0  0  0
  2 11  1  0  0  0  0
  2 13  1  0  0  0  0
  2 15  1  0  0  0  0
  3  5  1  0  0  0  0
  3 16  1  0  0  0  0
  3 40  1  0  0  0  0
  4 12  2  0  0  0  0
  4 27  1  0  0  0  0
  5 23  2  0  0  0  0
  6 22  1  0  0  0  0
  6 27  2  0  0  0  0
  7 21  1  0  0  0  0
  7 45  1  0  0  0  0
  7 46  1  0  0  0  0
  8 27  1  0  0  0  0
  8 49  1  0  0  0  0
  8 50  1  0  0  0  0
  9 10  1  0  0  0  0
  9 12  1  0  0  0  0
  9 13  2  0  0  0  0
 10 17  1  0  0  0  0
 10 19  2  0  0  0  0
 11 12  1  0  0  0  0
 11 22  2  0  0  0  0
 13 32  1  0  0  0  0
 14 16  1  0  0  0  0
 14 17  2  0  0  0  0
 14 20  1  0  0  0  0
 15 21  1  0  0  0  0
 15 33  1  0  0  0  0
 15 34  1  0  0  0  0
 16 18  2  0  0  0  0
 17 35  1  0  0  0  0
 18 19  1  0  0  0  0
 18 23  1  0  0  0  0
 19 36  1  0  0  0  0
 20 24  2  0  0  0  0
 21 37  1  0  0  0  0
 21 38  1  0  0  0  0
 22 39  1  0  0  0  0
 23 41  1  0  0  0  0
 24 25  1  0  0  0  0
 24 42  1  0  0  0  0
 25 26  1  0  0  0  0
 25 28  2  0  0  0  0
 26 29  2  0  0  0  0
 28 30  1  0  0  0  0
 28 43  1  0  0  0  0
 29 31  1  0  0  0  0
 29 44  1  0  0  0  0
 30 31  2  0  0  0  0
 30 47  1  0  0  0  0
 31 48  1  0  0  0  0
M  END
> <PUBCHEM_COMPOUND_CID>
46224684

> <PUBCHEM_COMPOUND_CANONICALIZED>
1

> <PUBCHEM_CACTVS_COMPLEXITY>
637

> <PUBCHEM_CACTVS_HBOND_ACCEPTOR>
6

> <PUBCHEM_CACTVS_HBOND_DONOR>
3

> <PUBCHEM_CACTVS_ROTATABLE_BOND>
4

> <PUBCHEM_CACTVS_SUBSKEYS>
AAADceB7gABAAAAAAAAAAAAAAAAAAWLEgAA8YIAAAAAAAFgB/gAAHAQYAAAADAjBXgQ90fdvEAimAzRnZACThK0xmrBZ+bg4dJiIaOLg2dGUpAhomALoyCcQgMAOiAACAAAGAAAQAAQAAAwAAAAAAAAAAA==

> <PUBCHEM_IUPAC_OPENEYE_NAME>
5-(2-aminoethyl)-7-[7-(benzothiophen-2-yl)-1H-indazol-5-yl]pyrrolo[3,2-d]pyrimidin-2-amine

> <PUBCHEM_IUPAC_CAS_NAME>
5-(2-aminoethyl)-7-[7-(1-benzothiophen-2-yl)-1H-indazol-5-yl]-2-pyrrolo[3,2-d]pyrimidinamine

> <PUBCHEM_IUPAC_NAME_MARKUP>
5-(2-aminoethyl)-7-[7-(1-benzothiophen-2-yl)-1<I>H</I>-indazol-5-yl]pyrrolo[3,2-d]pyrimidin-2-amine

> <PUBCHEM_IUPAC_NAME>
5-(2-aminoethyl)-7-[7-(1-benzothiophen-2-yl)-1H-indazol-5-yl]pyrrolo[3,2-d]pyrimidin-2-amine

> <PUBCHEM_IUPAC_SYSTEMATIC_NAME>
5-(2-azanylethyl)-7-[7-(1-benzothiophen-2-yl)-1H-indazol-5-yl]pyrrolo[3,2-d]pyrimidin-2-amine

> <PUBCHEM_IUPAC_TRADITIONAL_NAME>
2-[2-amino-7-[7-(benzothiophen-2-yl)-1H-indazol-5-yl]pyrrolo[3,2-d]pyrimidin-5-yl]ethylamine

> <PUBCHEM_IUPAC_INCHI>
InChI=1S/C23H19N7S/c24-5-6-30-12-17(22-18(30)11-26-23(25)28-22)14-7-15-10-27-29-21(15)16(8-14)20-9-13-3-1-2-4-19(13)31-20/h1-4,7-12H,5-6,24H2,(H,27,29)(H2,25,26,28)

> <PUBCHEM_IUPAC_INCHIKEY>
JPOSFPUHBHRUAX-UHFFFAOYSA-N

> <PUBCHEM_XLOGP3_AA>
3

> <PUBCHEM_EXACT_MASS>
425.14226481

> <PUBCHEM_MOLECULAR_FORMULA>
C23H19N7S

> <PUBCHEM_MOLECULAR_WEIGHT>
425.5

> <PUBCHEM_SMILES>
C1=CC=C2C(=C1)C=C(S2)C3=CC(=CC4=C3NN=C4)C5=CN(C6=CN=C(N=C65)N)CCN

> <PUBCHEM_OPENEYE_CAN_SMILES>
C1=CC=C2C(=C1)C=C(S2)C3=CC(=CC4=C3NN=C4)C5=CN(C6=CN=C(N=C65)N)CCN

> <PUBCHEM_OPENEYE_ISO_SMILES>
C1=CC=C2C(=C1)C=C(S2)C3=CC(=CC4=C3NN=C4)C5=CN(C6=CN=C(N=C65)N)CCN

> <PUBCHEM_CACTVS_TPSA>
140

> <PUBCHEM_MONOISOTOPIC_WEIGHT>
425.14226481

> <PUBCHEM_TOTAL_CHARGE>
0

> <PUBCHEM_HEAVY_ATOM_COUNT>
31

> <PUBCHEM_ATOM_DEF_STEREO_COUNT>
0

> <PUBCHEM_ATOM_UDEF_STEREO_COUNT>
0

> <PUBCHEM_BOND_DEF_STEREO_COUNT>
0

> <PUBCHEM_BOND_UDEF_STEREO_COUNT>
0

> <PUBCHEM_ISOTOPIC_ATOM_COUNT>
0

> <PUBCHEM_COMPONENT_COUNT>
1

> <PUBCHEM_CACTVS_TAUTO_COUNT>
-1

> <PUBCHEM_COORDINATE_TYPE>
1
5
255

> <PUBCHEM_BONDANNOTATIONS>
1  20  8
1  26  8
10  17  8
10  19  8
11  12  8
11  22  8
14  16  8
14  17  8
16  18  8
18  19  8
18  23  8
2  11  8
2  13  8
20  24  8
24  25  8
25  26  8
25  28  8
26  29  8
28  30  8
29  31  8
3  16  8
3  5  8
30  31  8
4  12  8
4  27  8
5  23  8
6  22  8
6  27  8
9  12  8
9  13  8

$$$$
