11560418
  -OEChem-03202503172D

 44 48  0     0  0  0  0  0  0999 V2000
    7.7531   -3.4317    0.0000 S   0  0  0  0  0  0  0  0  0  0  0  0
    4.1671    2.4679    0.0000 O   0  0  0  0  0  0  0  0  0  0  0  0
    9.8368   -1.7610    0.0000 O   0  0  0  0  0  0  0  0  0  0  0  0
    5.0749   -3.1270    0.0000 N   0  0  0  0  0  0  0  0  0  0  0  0
    5.9409    2.3730    0.0000 N   0  0  0  0  0  0  0  0  0  0  0  0
    5.9409   -4.6270    0.0000 N   0  0  0  0  0  0  0  0  0  0  0  0
    4.9718    3.8618    0.0000 N   0  0  0  0  0  0  0  0  0  0  0  0
    9.8368   -3.4930    0.0000 N   0  0  0  0  0  0  0  0  0  0  0  0
    6.8069   -2.1270    0.0000 C   0  0  0  0  0  0  0  0  0  0  0  0
    5.9409   -1.6270    0.0000 C   0  0  0  0  0  0  0  0  0  0  0  0
    5.9409   -0.6270    0.0000 C   0  0  0  0  0  0  0  0  0  0  0  0
    6.8069   -3.1270    0.0000 C   0  0  0  0  0  0  0  0  0  0  0  0
    7.7531   -1.8222    0.0000 C   0  0  0  0  0  0  0  0  0  0  0  0
    5.0749   -2.1270    0.0000 C   0  0  0  0  0  0  0  0  0  0  0  0
    5.0749   -0.1270    0.0000 C   0  0  0  0  0  0  0  0  0  0  0  0
    6.8069   -0.1270    0.0000 C   0  0  0  0  0  0  0  0  0  0  0  0
    5.9409   -3.6270    0.0000 C   0  0  0  0  0  0  0  0  0  0  0  0
    8.3368   -2.6270    0.0000 C   0  0  0  0  0  0  0  0  0  0  0  0
    5.9409    1.3730    0.0000 C   0  0  0  0  0  0  0  0  0  0  0  0
    5.0749    0.8730    0.0000 C   0  0  0  0  0  0  0  0  0  0  0  0
    6.8069    0.8730    0.0000 C   0  0  0  0  0  0  0  0  0  0  0  0
    5.0749    2.8730    0.0000 C   0  0  0  0  0  0  0  0  0  0  0  0
    3.5000    3.2049    0.0000 C   0  0  0  0  0  0  0  0  0  0  0  0
    4.0000    4.0710    0.0000 C   0  0  0  0  0  0  0  0  0  0  0  0
    9.3368   -2.6270    0.0000 C   0  0  0  0  0  0  0  0  0  0  0  0
    2.5000    3.2049    0.0000 C   0  0  0  0  0  0  0  0  0  0  0  0
    3.5000    4.9370    0.0000 C   0  0  0  0  0  0  0  0  0  0  0  0
    2.0000    4.0710    0.0000 C   0  0  0  0  0  0  0  0  0  0  0  0
    2.5000    4.9370    0.0000 C   0  0  0  0  0  0  0  0  0  0  0  0
    7.9458   -1.2329    0.0000 H   0  0  0  0  0  0  0  0  0  0  0  0
    4.5379   -1.8170    0.0000 H   0  0  0  0  0  0  0  0  0  0  0  0
    4.5379   -0.4370    0.0000 H   0  0  0  0  0  0  0  0  0  0  0  0
    7.3439   -0.4370    0.0000 H   0  0  0  0  0  0  0  0  0  0  0  0
    4.5379    1.1830    0.0000 H   0  0  0  0  0  0  0  0  0  0  0  0
    7.3439    1.1830    0.0000 H   0  0  0  0  0  0  0  0  0  0  0  0
    6.4778    2.6830    0.0000 H   0  0  0  0  0  0  0  0  0  0  0  0
    5.4040   -4.9370    0.0000 H   0  0  0  0  0  0  0  0  0  0  0  0
    6.4778   -4.9370    0.0000 H   0  0  0  0  0  0  0  0  0  0  0  0
    2.1900    2.6680    0.0000 H   0  0  0  0  0  0  0  0  0  0  0  0
    3.8100    5.4739    0.0000 H   0  0  0  0  0  0  0  0  0  0  0  0
    1.3800    4.0710    0.0000 H   0  0  0  0  0  0  0  0  0  0  0  0
    2.1900    5.4739    0.0000 H   0  0  0  0  0  0  0  0  0  0  0  0
   10.4567   -3.4930    0.0000 H   0  0  0  0  0  0  0  0  0  0  0  0
    9.5268   -4.0299    0.0000 H   0  0  0  0  0  0  0  0  0  0  0  0
  1 12  1  0  0  0  0
  1 18  1  0  0  0  0
  2 22  1  0  0  0  0
  2 23  1  0  0  0  0
  3 25  2  0  0  0  0
  4 14  1  0  0  0  0
  4 17  2  0  0  0  0
  5 19  1  0  0  0  0
  5 22  1  0  0  0  0
  5 36  1  0  0  0  0
  6 17  1  0  0  0  0
  6 37  1  0  0  0  0
  6 38  1  0  0  0  0
  7 22  2  0  0  0  0
  7 24  1  0  0  0  0
  8 25  1  0  0  0  0
  8 43  1  0  0  0  0
  8 44  1  0  0  0  0
  9 10  1  0  0  0  0
  9 12  2  0  0  0  0
  9 13  1  0  0  0  0
 10 11  1  0  0  0  0
 10 14  2  0  0  0  0
 11 15  2  0  0  0  0
 11 16  1  0  0  0  0
 12 17  1  0  0  0  0
 13 18  2  0  0  0  0
 13 30  1  0  0  0  0
 14 31  1  0  0  0  0
 15 20  1  0  0  0  0
 15 32  1  0  0  0  0
 16 21  2  0  0  0  0
 16 33  1  0  0  0  0
 18 25  1  0  0  0  0
 19 20  2  0  0  0  0
 19 21  1  0  0  0  0
 20 34  1  0  0  0  0
 21 35  1  0  0  0  0
 23 24  1  0  0  0  0
 23 26  2  0  0  0  0
 24 27  2  0  0  0  0
 26 28  1  0  0  0  0
 26 39  1  0  0  0  0
 27 29  1  0  0  0  0
 27 40  1  0  0  0  0
 28 29  2  0  0  0  0
 28 41  1  0  0  0  0
 29 42  1  0  0  0  0
M  END
> <PUBCHEM_COMPOUND_CID>
11560418

> <PUBCHEM_COMPOUND_CANONICALIZED>
1

> <PUBCHEM_CACTVS_COMPLEXITY>
602

> <PUBCHEM_CACTVS_HBOND_ACCEPTOR>
7

> <PUBCHEM_CACTVS_HBOND_DONOR>
3

> <PUBCHEM_CACTVS_ROTATABLE_BOND>
4

> <PUBCHEM_CACTVS_SUBSKEYS>
AAADccB7sABAAAAAAAAAAAAAAAAAAWJAAAA8YIAAAAAAAFgB/gAAHgQQAAAADAzB3gQ99/LIFEisA7d3dASDqKk/ajBJ2D2/bNmOJvLkvbuNMShs1BP46aeYyMCOiAAAAAAAEAAQAAAAAAAgAAAAAAAAAA==

> <PUBCHEM_IUPAC_OPENEYE_NAME>
7-amino-4-[4-(1,3-benzoxazol-2-ylamino)phenyl]thieno[2,3-c]pyridine-2-carboxamide

> <PUBCHEM_IUPAC_CAS_NAME>
7-amino-4-[4-(1,3-benzoxazol-2-ylamino)phenyl]-2-thieno[2,3-c]pyridinecarboxamide

> <PUBCHEM_IUPAC_NAME_MARKUP>
7-amino-4-[4-(1,3-benzoxazol-2-ylamino)phenyl]thieno[2,3-c]pyridine-2-carboxamide

> <PUBCHEM_IUPAC_NAME>
7-amino-4-[4-(1,3-benzoxazol-2-ylamino)phenyl]thieno[2,3-c]pyridine-2-carboxamide

> <PUBCHEM_IUPAC_SYSTEMATIC_NAME>
7-azanyl-4-[4-(1,3-benzoxazol-2-ylamino)phenyl]thieno[2,3-c]pyridine-2-carboxamide

> <PUBCHEM_IUPAC_TRADITIONAL_NAME>
7-amino-4-[4-(1,3-benzoxazol-2-ylamino)phenyl]thieno[2,3-c]pyridine-2-carboxamide

> <PUBCHEM_IUPAC_INCHI>
InChI=1S/C21H15N5O2S/c22-19-18-13(9-17(29-18)20(23)27)14(10-24-19)11-5-7-12(8-6-11)25-21-26-15-3-1-2-4-16(15)28-21/h1-10H,(H2,22,24)(H2,23,27)(H,25,26)

> <PUBCHEM_IUPAC_INCHIKEY>
MCKPYPWHBUXLEZ-UHFFFAOYSA-N

> <PUBCHEM_XLOGP3_AA>
4.1

> <PUBCHEM_EXACT_MASS>
401.09464591

> <PUBCHEM_MOLECULAR_FORMULA>
C21H15N5O2S

> <PUBCHEM_MOLECULAR_WEIGHT>
401.4

> <PUBCHEM_SMILES>
C1=CC=C2C(=C1)N=C(O2)NC3=CC=C(C=C3)C4=CN=C(C5=C4C=C(S5)C(=O)N)N

> <PUBCHEM_OPENEYE_CAN_SMILES>
C1=CC=C2C(=C1)N=C(O2)NC3=CC=C(C=C3)C4=CN=C(C5=C4C=C(S5)C(=O)N)N

> <PUBCHEM_OPENEYE_ISO_SMILES>
C1=CC=C2C(=C1)N=C(O2)NC3=CC=C(C=C3)C4=CN=C(C5=C4C=C(S5)C(=O)N)N

> <PUBCHEM_CACTVS_TPSA>
148

> <PUBCHEM_MONOISOTOPIC_WEIGHT>
401.09464591

> <PUBCHEM_TOTAL_CHARGE>
0

> <PUBCHEM_HEAVY_ATOM_COUNT>
29

> <PUBCHEM_ATOM_DEF_STEREO_COUNT>
0

> <PUBCHEM_ATOM_UDEF_STEREO_COUNT>
0

> <PUBCHEM_BOND_DEF_STEREO_COUNT>
0

> <PUBCHEM_BOND_UDEF_STEREO_COUNT>
0

> <PUBCHEM_ISOTOPIC_ATOM_COUNT>
0

> <PUBCHEM_COMPONENT_COUNT>
1

> <PUBCHEM_CACTVS_TAUTO_COUNT>
-1

> <PUBCHEM_COORDINATE_TYPE>
1
5
255

> <PUBCHEM_BONDANNOTATIONS>
1  12  8
1  18  8
10  14  8
11  15  8
11  16  8
12  17  8
13  18  8
15  20  8
16  21  8
19  20  8
19  21  8
2  22  8
2  23  8
23  24  8
23  26  8
24  27  8
26  28  8
27  29  8
28  29  8
4  14  8
4  17  8
7  22  8
7  24  8
9  10  8
9  12  8
9  13  8

$$$$
