18516203
  -OEChem-03202502522D

 36 39  0     0  0  0  0  0  0999 V2000
    8.1424   -2.7378    0.0000 S   0  0  0  0  0  0  0  0  0  0  0  0
    2.0000    2.5670    0.0000 F   0  0  0  0  0  0  0  0  0  0  0  0
    3.3660    2.9330    0.0000 F   0  0  0  0  0  0  0  0  0  0  0  0
    2.3660    1.2010    0.0000 F   0  0  0  0  0  0  0  0  0  0  0  0
    6.3301    0.0670    0.0000 O   0  0  0  0  0  0  0  0  0  0  0  0
   10.3138   -1.1240    0.0000 O   0  0  0  0  0  0  0  0  0  0  0  0
    5.4641   -2.4330    0.0000 N   0  0  0  0  0  0  0  0  0  0  0  0
   10.3138   -2.7420    0.0000 N   0  0  0  0  0  0  0  0  0  0  0  0
   11.2648   -2.4330    0.0000 N   0  0  0  0  0  0  0  0  0  0  0  0
    7.1962   -1.4330    0.0000 C   0  0  0  0  0  0  0  0  0  0  0  0
    7.1962   -2.4330    0.0000 C   0  0  0  0  0  0  0  0  0  0  0  0
    6.3301   -0.9330    0.0000 C   0  0  0  0  0  0  0  0  0  0  0  0
    8.1424   -1.1283    0.0000 C   0  0  0  0  0  0  0  0  0  0  0  0
    8.7260   -1.9330    0.0000 C   0  0  0  0  0  0  0  0  0  0  0  0
    6.3301   -2.9330    0.0000 C   0  0  0  0  0  0  0  0  0  0  0  0
    5.4641    0.5670    0.0000 C   0  0  0  0  0  0  0  0  0  0  0  0
    9.7260   -1.9330    0.0000 C   0  0  0  0  0  0  0  0  0  0  0  0
    5.4641   -1.4330    0.0000 C   0  0  0  0  0  0  0  0  0  0  0  0
    3.7320    1.5670    0.0000 C   0  0  0  0  0  0  0  0  0  0  0  0
    5.4641    1.5670    0.0000 C   0  0  0  0  0  0  0  0  0  0  0  0
    4.5981    0.0670    0.0000 C   0  0  0  0  0  0  0  0  0  0  0  0
    4.5981    2.0670    0.0000 C   0  0  0  0  0  0  0  0  0  0  0  0
    3.7320    0.5670    0.0000 C   0  0  0  0  0  0  0  0  0  0  0  0
    2.8660    2.0670    0.0000 C   0  0  0  0  0  0  0  0  0  0  0  0
   11.2648   -1.4330    0.0000 C   0  0  0  0  0  0  0  0  0  0  0  0
   12.0738   -0.8452    0.0000 C   0  0  0  0  0  0  0  0  0  0  0  0
    8.3350   -0.5390    0.0000 H   0  0  0  0  0  0  0  0  0  0  0  0
    6.3301   -3.5530    0.0000 H   0  0  0  0  0  0  0  0  0  0  0  0
    4.9272   -1.1230    0.0000 H   0  0  0  0  0  0  0  0  0  0  0  0
    6.0010    1.8770    0.0000 H   0  0  0  0  0  0  0  0  0  0  0  0
    4.5981   -0.5530    0.0000 H   0  0  0  0  0  0  0  0  0  0  0  0
    4.5981    2.6870    0.0000 H   0  0  0  0  0  0  0  0  0  0  0  0
    3.1951    0.2570    0.0000 H   0  0  0  0  0  0  0  0  0  0  0  0
   12.4383   -1.3468    0.0000 H   0  0  0  0  0  0  0  0  0  0  0  0
   12.5754   -0.4808    0.0000 H   0  0  0  0  0  0  0  0  0  0  0  0
   11.7094   -0.3436    0.0000 H   0  0  0  0  0  0  0  0  0  0  0  0
  1 11  1  0  0  0  0
  1 14  1  0  0  0  0
  2 24  1  0  0  0  0
  3 24  1  0  0  0  0
  4 24  1  0  0  0  0
  5 12  1  0  0  0  0
  5 16  1  0  0  0  0
  6 17  1  0  0  0  0
  6 25  1  0  0  0  0
  7 15  2  0  0  0  0
  7 18  1  0  0  0  0
  8  9  1  0  0  0  0
  8 17  2  0  0  0  0
  9 25  2  0  0  0  0
 10 11  2  0  0  0  0
 10 12  1  0  0  0  0
 10 13  1  0  0  0  0
 11 15  1  0  0  0  0
 12 18  2  0  0  0  0
 13 14  2  0  0  0  0
 13 27  1  0  0  0  0
 14 17  1  0  0  0  0
 15 28  1  0  0  0  0
 16 20  2  0  0  0  0
 16 21  1  0  0  0  0
 18 29  1  0  0  0  0
 19 22  2  0  0  0  0
 19 23  1  0  0  0  0
 19 24  1  0  0  0  0
 20 22  1  0  0  0  0
 20 30  1  0  0  0  0
 21 23  2  0  0  0  0
 21 31  1  0  0  0  0
 22 32  1  0  0  0  0
 23 33  1  0  0  0  0
 25 26  1  0  0  0  0
 26 34  1  0  0  0  0
 26 35  1  0  0  0  0
 26 36  1  0  0  0  0
M  END
> <PUBCHEM_COMPOUND_CID>
18516203

> <PUBCHEM_COMPOUND_CANONICALIZED>
1

> <PUBCHEM_CACTVS_COMPLEXITY>
490

> <PUBCHEM_CACTVS_HBOND_ACCEPTOR>
9

> <PUBCHEM_CACTVS_HBOND_DONOR>
0

> <PUBCHEM_CACTVS_ROTATABLE_BOND>
3

> <PUBCHEM_CACTVS_SUBSKEYS>
AAADccB7MYBAAAAAAAAAAAAAAAAAAWJAAAA8QAAAAAAAAFgB/gAAHwQIAAAADATB2hQ+h9IIFEiuAjF3VASTqKA9aDBa2D0/TNgOJvLktZuPOSjkyBH46Ye4/AxOIAAAAAAAAABAAAAAAAAAAAAAAAAAAA==

> <PUBCHEM_IUPAC_OPENEYE_NAME>
2-methyl-5-[4-[4-(trifluoromethyl)phenoxy]thieno[2,3-c]pyridin-2-yl]-1,3,4-oxadiazole

> <PUBCHEM_IUPAC_CAS_NAME>
2-methyl-5-[4-[4-(trifluoromethyl)phenoxy]-2-thieno[2,3-c]pyridinyl]-1,3,4-oxadiazole

> <PUBCHEM_IUPAC_NAME_MARKUP>
2-methyl-5-[4-[4-(trifluoromethyl)phenoxy]thieno[2,3-c]pyridin-2-yl]-1,3,4-oxadiazole

> <PUBCHEM_IUPAC_NAME>
2-methyl-5-[4-[4-(trifluoromethyl)phenoxy]thieno[2,3-c]pyridin-2-yl]-1,3,4-oxadiazole

> <PUBCHEM_IUPAC_SYSTEMATIC_NAME>
2-methyl-5-[4-[4-(trifluoromethyl)phenoxy]thieno[2,3-c]pyridin-2-yl]-1,3,4-oxadiazole

> <PUBCHEM_IUPAC_TRADITIONAL_NAME>
2-methyl-5-[4-[4-(trifluoromethyl)phenoxy]thieno[2,3-c]pyridin-2-yl]-1,3,4-oxadiazole

> <PUBCHEM_IUPAC_INCHI>
InChI=1S/C17H10F3N3O2S/c1-9-22-23-16(24-9)14-6-12-13(7-21-8-15(12)26-14)25-11-4-2-10(3-5-11)17(18,19)20/h2-8H,1H3

> <PUBCHEM_IUPAC_INCHIKEY>
IMHKMKWSWHFKTM-UHFFFAOYSA-N

> <PUBCHEM_XLOGP3_AA>
4.2

> <PUBCHEM_EXACT_MASS>
377.04458223

> <PUBCHEM_MOLECULAR_FORMULA>
C17H10F3N3O2S

> <PUBCHEM_MOLECULAR_WEIGHT>
377.3

> <PUBCHEM_SMILES>
CC1=NN=C(O1)C2=CC3=C(S2)C=NC=C3OC4=CC=C(C=C4)C(F)(F)F

> <PUBCHEM_OPENEYE_CAN_SMILES>
CC1=NN=C(O1)C2=CC3=C(S2)C=NC=C3OC4=CC=C(C=C4)C(F)(F)F

> <PUBCHEM_OPENEYE_ISO_SMILES>
CC1=NN=C(O1)C2=CC3=C(S2)C=NC=C3OC4=CC=C(C=C4)C(F)(F)F

> <PUBCHEM_CACTVS_TPSA>
89.3

> <PUBCHEM_MONOISOTOPIC_WEIGHT>
377.04458223

> <PUBCHEM_TOTAL_CHARGE>
0

> <PUBCHEM_HEAVY_ATOM_COUNT>
26

> <PUBCHEM_ATOM_DEF_STEREO_COUNT>
0

> <PUBCHEM_ATOM_UDEF_STEREO_COUNT>
0

> <PUBCHEM_BOND_DEF_STEREO_COUNT>
0

> <PUBCHEM_BOND_UDEF_STEREO_COUNT>
0

> <PUBCHEM_ISOTOPIC_ATOM_COUNT>
0

> <PUBCHEM_COMPONENT_COUNT>
1

> <PUBCHEM_CACTVS_TAUTO_COUNT>
-1

> <PUBCHEM_COORDINATE_TYPE>
1
5
255

> <PUBCHEM_BONDANNOTATIONS>
1  11  8
1  14  8
10  11  8
10  12  8
10  13  8
11  15  8
12  18  8
13  14  8
16  20  8
16  21  8
19  22  8
19  23  8
20  22  8
21  23  8
6  17  8
6  25  8
7  15  8
7  18  8
8  17  8
8  9  8
9  25  8

$$$$
