44605037
  -OEChem-03192523212D

 68 72  0     0  0  0  0  0  0999 V2000
   10.9005   -3.4560    0.0000 O   0  0  0  0  0  0  0  0  0  0  0  0
    6.8671    5.3570    0.0000 O   0  0  0  0  0  0  0  0  0  0  0  0
    9.2541   -3.9941    0.0000 O   0  0  0  0  0  0  0  0  0  0  0  0
    9.6113   -2.2993    0.0000 N   0  0  0  0  0  0  0  0  0  0  0  0
    8.6793    0.5523    0.0000 N   0  0  0  0  0  0  0  0  0  0  0  0
    9.2629    1.3570    0.0000 N   0  0  0  0  0  0  0  0  0  0  0  0
    6.8671    3.3570    0.0000 N   0  0  0  0  0  0  0  0  0  0  0  0
    6.8671    0.3570    0.0000 N   0  0  0  0  0  0  0  0  0  0  0  0
    6.0010    1.8570    0.0000 N   0  0  0  0  0  0  0  0  0  0  0  0
    2.5369   -1.1430    0.0000 N   0  0  0  0  0  0  0  0  0  0  0  0
    8.9900   -0.3982    0.0000 C   0  0  0  0  0  0  0  0  0  0  0  0
    9.9685   -0.6044    0.0000 C   0  0  0  0  0  0  0  0  0  0  0  0
    8.3221   -1.1425    0.0000 C   0  0  0  0  0  0  0  0  0  0  0  0
   10.2791   -1.5550    0.0000 C   0  0  0  0  0  0  0  0  0  0  0  0
    8.6328   -2.0930    0.0000 C   0  0  0  0  0  0  0  0  0  0  0  0
    7.7331    0.8570    0.0000 C   0  0  0  0  0  0  0  0  0  0  0  0
    7.7331    1.8570    0.0000 C   0  0  0  0  0  0  0  0  0  0  0  0
    9.9220   -3.2498    0.0000 C   0  0  0  0  0  0  0  0  0  0  0  0
    6.8671    2.3570    0.0000 C   0  0  0  0  0  0  0  0  0  0  0  0
    8.6793    2.1618    0.0000 C   0  0  0  0  0  0  0  0  0  0  0  0
    7.7331    3.8570    0.0000 C   0  0  0  0  0  0  0  0  0  0  0  0
    6.0010    3.8570    0.0000 C   0  0  0  0  0  0  0  0  0  0  0  0
   11.2111   -4.4065    0.0000 C   0  0  0  0  0  0  0  0  0  0  0  0
    6.0010    0.8570    0.0000 C   0  0  0  0  0  0  0  0  0  0  0  0
    7.7331    4.8570    0.0000 C   0  0  0  0  0  0  0  0  0  0  0  0
    6.0010    4.8570    0.0000 C   0  0  0  0  0  0  0  0  0  0  0  0
   11.5218   -5.3570    0.0000 C   0  0  0  0  0  0  0  0  0  0  0  0
   12.1616   -4.0959    0.0000 C   0  0  0  0  0  0  0  0  0  0  0  0
   10.2606   -4.7172    0.0000 C   0  0  0  0  0  0  0  0  0  0  0  0
    5.1350    0.3570    0.0000 C   0  0  0  0  0  0  0  0  0  0  0  0
    4.2690    0.8570    0.0000 C   0  0  0  0  0  0  0  0  0  0  0  0
    5.1350   -0.6430    0.0000 C   0  0  0  0  0  0  0  0  0  0  0  0
    3.4030    0.3570    0.0000 C   0  0  0  0  0  0  0  0  0  0  0  0
    4.2690   -1.1430    0.0000 C   0  0  0  0  0  0  0  0  0  0  0  0
    3.4030   -0.6430    0.0000 C   0  0  0  0  0  0  0  0  0  0  0  0
    9.4040    0.0633    0.0000 H   0  0  0  0  0  0  0  0  0  0  0  0
   10.5823   -0.5171    0.0000 H   0  0  0  0  0  0  0  0  0  0  0  0
    9.9890    0.0152    0.0000 H   0  0  0  0  0  0  0  0  0  0  0  0
    7.9396   -0.6546    0.0000 H   0  0  0  0  0  0  0  0  0  0  0  0
    7.7752   -1.4345    0.0000 H   0  0  0  0  0  0  0  0  0  0  0  0
   10.6617   -2.0429    0.0000 H   0  0  0  0  0  0  0  0  0  0  0  0
   10.8261   -1.2629    0.0000 H   0  0  0  0  0  0  0  0  0  0  0  0
    8.0190   -2.1804    0.0000 H   0  0  0  0  0  0  0  0  0  0  0  0
    8.6122   -2.7127    0.0000 H   0  0  0  0  0  0  0  0  0  0  0  0
    8.8719    2.7511    0.0000 H   0  0  0  0  0  0  0  0  0  0  0  0
    7.9451    3.2744    0.0000 H   0  0  0  0  0  0  0  0  0  0  0  0
    8.3437    3.9647    0.0000 H   0  0  0  0  0  0  0  0  0  0  0  0
    5.3905    3.9647    0.0000 H   0  0  0  0  0  0  0  0  0  0  0  0
    5.7890    3.2744    0.0000 H   0  0  0  0  0  0  0  0  0  0  0  0
    8.3437    4.7494    0.0000 H   0  0  0  0  0  0  0  0  0  0  0  0
    7.9451    5.4396    0.0000 H   0  0  0  0  0  0  0  0  0  0  0  0
    5.7890    5.4396    0.0000 H   0  0  0  0  0  0  0  0  0  0  0  0
    5.3905    4.7494    0.0000 H   0  0  0  0  0  0  0  0  0  0  0  0
   10.9325   -5.5496    0.0000 H   0  0  0  0  0  0  0  0  0  0  0  0
   11.7144   -5.9464    0.0000 H   0  0  0  0  0  0  0  0  0  0  0  0
   12.1111   -5.1644    0.0000 H   0  0  0  0  0  0  0  0  0  0  0  0
   12.3543   -4.6852    0.0000 H   0  0  0  0  0  0  0  0  0  0  0  0
   12.7510   -3.9032    0.0000 H   0  0  0  0  0  0  0  0  0  0  0  0
   11.9690   -3.5065    0.0000 H   0  0  0  0  0  0  0  0  0  0  0  0
   10.0680   -4.1279    0.0000 H   0  0  0  0  0  0  0  0  0  0  0  0
    9.6713   -4.9098    0.0000 H   0  0  0  0  0  0  0  0  0  0  0  0
   10.4532   -5.3065    0.0000 H   0  0  0  0  0  0  0  0  0  0  0  0
    4.2690    1.4770    0.0000 H   0  0  0  0  0  0  0  0  0  0  0  0
    5.6720   -0.9530    0.0000 H   0  0  0  0  0  0  0  0  0  0  0  0
    2.8660    0.6670    0.0000 H   0  0  0  0  0  0  0  0  0  0  0  0
    4.2690   -1.7630    0.0000 H   0  0  0  0  0  0  0  0  0  0  0  0
    2.0000   -0.8330    0.0000 H   0  0  0  0  0  0  0  0  0  0  0  0
    2.5369   -1.7630    0.0000 H   0  0  0  0  0  0  0  0  0  0  0  0
  1 18  1  0  0  0  0
  1 23  1  0  0  0  0
  2 25  1  0  0  0  0
  2 26  1  0  0  0  0
  3 18  2  0  0  0  0
  4 14  1  0  0  0  0
  4 15  1  0  0  0  0
  4 18  1  0  0  0  0
  5  6  1  0  0  0  0
  5 11  1  0  0  0  0
  5 16  1  0  0  0  0
  6 20  2  0  0  0  0
  7 19  1  0  0  0  0
  7 21  1  0  0  0  0
  7 22  1  0  0  0  0
  8 16  1  0  0  0  0
  8 24  2  0  0  0  0
  9 19  2  0  0  0  0
  9 24  1  0  0  0  0
 10 35  1  0  0  0  0
 10 67  1  0  0  0  0
 10 68  1  0  0  0  0
 11 12  1  0  0  0  0
 11 13  1  0  0  0  0
 11 36  1  0  0  0  0
 12 14  1  0  0  0  0
 12 37  1  0  0  0  0
 12 38  1  0  0  0  0
 13 15  1  0  0  0  0
 13 39  1  0  0  0  0
 13 40  1  0  0  0  0
 14 41  1  0  0  0  0
 14 42  1  0  0  0  0
 15 43  1  0  0  0  0
 15 44  1  0  0  0  0
 16 17  2  0  0  0  0
 17 19  1  0  0  0  0
 17 20  1  0  0  0  0
 20 45  1  0  0  0  0
 21 25  1  0  0  0  0
 21 46  1  0  0  0  0
 21 47  1  0  0  0  0
 22 26  1  0  0  0  0
 22 48  1  0  0  0  0
 22 49  1  0  0  0  0
 23 27  1  0  0  0  0
 23 28  1  0  0  0  0
 23 29  1  0  0  0  0
 24 30  1  0  0  0  0
 25 50  1  0  0  0  0
 25 51  1  0  0  0  0
 26 52  1  0  0  0  0
 26 53  1  0  0  0  0
 27 54  1  0  0  0  0
 27 55  1  0  0  0  0
 27 56  1  0  0  0  0
 28 57  1  0  0  0  0
 28 58  1  0  0  0  0
 28 59  1  0  0  0  0
 29 60  1  0  0  0  0
 29 61  1  0  0  0  0
 29 62  1  0  0  0  0
 30 31  2  0  0  0  0
 30 32  1  0  0  0  0
 31 33  1  0  0  0  0
 31 63  1  0  0  0  0
 32 34  2  0  0  0  0
 32 64  1  0  0  0  0
 33 35  2  0  0  0  0
 33 65  1  0  0  0  0
 34 35  1  0  0  0  0
 34 66  1  0  0  0  0
M  END
> <PUBCHEM_COMPOUND_CID>
44605037

> <PUBCHEM_COMPOUND_CANONICALIZED>
1

> <PUBCHEM_CACTVS_COMPLEXITY>
712

> <PUBCHEM_CACTVS_HBOND_ACCEPTOR>
8

> <PUBCHEM_CACTVS_HBOND_DONOR>
1

> <PUBCHEM_CACTVS_ROTATABLE_BOND>
5

> <PUBCHEM_CACTVS_SUBSKEYS>
AAADcfB7sAAAAAAAAAAAAAAAAAAAAWAAAAA8WLEAAAAAAFgB/AAAHgAYAAAADGzhmwY/+N9IFACqAjZnfACShCshgqAd2CAoZJiKKKLA2dGPpAhongLYyCcQgAAOCAAAAAAAAAAQAAAAAAAAAAAAAAAAAA==

> <PUBCHEM_IUPAC_OPENEYE_NAME>
tert-butyl 4-[6-(4-aminophenyl)-4-morpholino-pyrazolo[3,4-d]pyrimidin-1-yl]piperidine-1-carboxylate

> <PUBCHEM_IUPAC_CAS_NAME>
4-[6-(4-aminophenyl)-4-(4-morpholinyl)-1-pyrazolo[3,4-d]pyrimidinyl]-1-piperidinecarboxylic acid tert-butyl ester

> <PUBCHEM_IUPAC_NAME_MARKUP>
<I>tert</I>-butyl 4-[6-(4-aminophenyl)-4-morpholin-4-ylpyrazolo[3,4-d]pyrimidin-1-yl]piperidine-1-carboxylate

> <PUBCHEM_IUPAC_NAME>
tert-butyl 4-[6-(4-aminophenyl)-4-morpholin-4-ylpyrazolo[3,4-d]pyrimidin-1-yl]piperidine-1-carboxylate

> <PUBCHEM_IUPAC_SYSTEMATIC_NAME>
tert-butyl 4-[6-(4-aminophenyl)-4-morpholin-4-yl-pyrazolo[3,4-d]pyrimidin-1-yl]piperidine-1-carboxylate

> <PUBCHEM_IUPAC_TRADITIONAL_NAME>
4-[6-(4-aminophenyl)-4-morpholino-pyrazolo[3,4-d]pyrimidin-1-yl]piperidine-1-carboxylic acid tert-butyl ester

> <PUBCHEM_IUPAC_INCHI>
InChI=1S/C25H33N7O3/c1-25(2,3)35-24(33)31-10-8-19(9-11-31)32-23-20(16-27-32)22(30-12-14-34-15-13-30)28-21(29-23)17-4-6-18(26)7-5-17/h4-7,16,19H,8-15,26H2,1-3H3

> <PUBCHEM_IUPAC_INCHIKEY>
OHKRUKRKVNWNNT-UHFFFAOYSA-N

> <PUBCHEM_XLOGP3_AA>
2.6

> <PUBCHEM_EXACT_MASS>
479.26448794

> <PUBCHEM_MOLECULAR_FORMULA>
C25H33N7O3

> <PUBCHEM_MOLECULAR_WEIGHT>
479.6

> <PUBCHEM_SMILES>
CC(C)(C)OC(=O)N1CCC(CC1)N2C3=C(C=N2)C(=NC(=N3)C4=CC=C(C=C4)N)N5CCOCC5

> <PUBCHEM_OPENEYE_CAN_SMILES>
CC(C)(C)OC(=O)N1CCC(CC1)N2C3=C(C=N2)C(=NC(=N3)C4=CC=C(C=C4)N)N5CCOCC5

> <PUBCHEM_OPENEYE_ISO_SMILES>
CC(C)(C)OC(=O)N1CCC(CC1)N2C3=C(C=N2)C(=NC(=N3)C4=CC=C(C=C4)N)N5CCOCC5

> <PUBCHEM_CACTVS_TPSA>
112

> <PUBCHEM_MONOISOTOPIC_WEIGHT>
479.26448794

> <PUBCHEM_TOTAL_CHARGE>
0

> <PUBCHEM_HEAVY_ATOM_COUNT>
35

> <PUBCHEM_ATOM_DEF_STEREO_COUNT>
0

> <PUBCHEM_ATOM_UDEF_STEREO_COUNT>
0

> <PUBCHEM_BOND_DEF_STEREO_COUNT>
0

> <PUBCHEM_BOND_UDEF_STEREO_COUNT>
0

> <PUBCHEM_ISOTOPIC_ATOM_COUNT>
0

> <PUBCHEM_COMPONENT_COUNT>
1

> <PUBCHEM_CACTVS_TAUTO_COUNT>
-1

> <PUBCHEM_COORDINATE_TYPE>
1
5
255

> <PUBCHEM_BONDANNOTATIONS>
16  17  8
17  19  8
17  20  8
30  31  8
30  32  8
31  33  8
32  34  8
33  35  8
34  35  8
5  16  8
5  6  8
6  20  8
8  16  8
8  24  8
9  19  8
9  24  8

$$$$
