49830345
  -OEChem-03202500512D

 64 68  0     1  0  0  0  0  0999 V2000
    4.6783   -0.8314    0.0000 S   0  0  0  0  0  0  0  0  0  0  0  0
    2.5526   -5.3926    0.0000 O   0  0  0  0  0  0  0  0  0  0  0  0
    3.7281   -7.0107    0.0000 O   0  0  0  0  0  0  0  0  0  0  0  0
    7.5673    4.0420    0.0000 O   0  0  0  0  0  0  0  0  0  0  0  0
   11.1241    6.5617    0.0000 O   0  0  0  0  0  0  0  0  0  0  0  0
    3.3660   -3.5655    0.0000 N   0  0  0  0  0  0  0  0  0  0  0  0
    2.3660   -3.5655    0.0000 N   0  0  0  0  0  0  0  0  0  0  0  0
    2.0000    0.4733    0.0000 N   0  0  0  0  0  0  0  0  0  0  0  0
    2.8660    1.9733    0.0000 N   0  0  0  0  0  0  0  0  0  0  0  0
    5.9209    4.5801    0.0000 N   0  0  0  0  0  0  0  0  0  0  0  0
    7.2101    5.7369    0.0000 N   0  0  0  0  0  0  0  0  0  0  0  0
    3.7320    0.4733    0.0000 C   0  0  0  0  0  0  0  0  0  0  0  0
    3.7320   -0.5267    0.0000 C   0  0  0  0  0  0  0  0  0  0  0  0
    2.8660   -1.0267    0.0000 C   0  0  0  0  0  0  0  0  0  0  0  0
    4.6783    0.7780    0.0000 C   0  0  0  0  0  0  0  0  0  0  0  0
    2.8660   -2.0267    0.0000 C   0  0  0  0  0  0  0  0  0  0  0  0
    3.9538   -4.3746    0.0000 C   0  0  0  0  0  0  0  0  0  0  0  0
    3.5471   -5.2881    0.0000 C   0  0  3  0  0  0  0  0  0  0  0  0
    3.6750   -2.6145    0.0000 C   0  0  0  0  0  0  0  0  0  0  0  0
    4.9889    1.7286    0.0000 C   0  0  0  0  0  0  0  0  0  0  0  0
    2.8660    0.9733    0.0000 C   0  0  0  0  0  0  0  0  0  0  0  0
    5.2619   -0.0267    0.0000 C   0  0  0  0  0  0  0  0  0  0  0  0
    2.0000   -0.5267    0.0000 C   0  0  0  0  0  0  0  0  0  0  0  0
    2.0570   -2.6145    0.0000 C   0  0  0  0  0  0  0  0  0  0  0  0
    4.1349   -6.0971    0.0000 C   0  0  0  0  0  0  0  0  0  0  0  0
    4.3211    2.4729    0.0000 C   0  0  0  0  0  0  0  0  0  0  0  0
    5.9674    1.9348    0.0000 C   0  0  0  0  0  0  0  0  0  0  0  0
    5.6103    3.6296    0.0000 C   0  0  0  0  0  0  0  0  0  0  0  0
    4.6318    3.4234    0.0000 C   0  0  0  0  0  0  0  0  0  0  0  0
    6.2781    2.8853    0.0000 C   0  0  0  0  0  0  0  0  0  0  0  0
    6.8994    4.7863    0.0000 C   0  0  0  0  0  0  0  0  0  0  0  0
    8.1886    5.9431    0.0000 C   0  0  0  0  0  0  0  0  0  0  0  0
    8.4993    6.8936    0.0000 C   0  0  0  0  0  0  0  0  0  0  0  0
    8.8564    5.1988    0.0000 C   0  0  0  0  0  0  0  0  0  0  0  0
    9.4778    7.0998    0.0000 C   0  0  0  0  0  0  0  0  0  0  0  0
    9.8349    5.4050    0.0000 C   0  0  0  0  0  0  0  0  0  0  0  0
   10.1456    6.3555    0.0000 C   0  0  0  0  0  0  0  0  0  0  0  0
   11.4348    7.5122    0.0000 C   0  0  0  0  0  0  0  0  0  0  0  0
    4.4678   -4.7213    0.0000 H   0  0  0  0  0  0  0  0  0  0  0  0
    4.3845   -3.9286    0.0000 H   0  0  0  0  0  0  0  0  0  0  0  0
    3.2949   -5.8545    0.0000 H   0  0  0  0  0  0  0  0  0  0  0  0
    4.2647   -2.4229    0.0000 H   0  0  0  0  0  0  0  0  0  0  0  0
    5.8819   -0.0267    0.0000 H   0  0  0  0  0  0  0  0  0  0  0  0
    1.4631   -0.8367    0.0000 H   0  0  0  0  0  0  0  0  0  0  0  0
    1.4674   -2.4229    0.0000 H   0  0  0  0  0  0  0  0  0  0  0  0
    4.6489   -6.4438    0.0000 H   0  0  0  0  0  0  0  0  0  0  0  0
    4.5656   -5.6511    0.0000 H   0  0  0  0  0  0  0  0  0  0  0  0
    3.7144    2.3450    0.0000 H   0  0  0  0  0  0  0  0  0  0  0  0
    6.3815    1.4733    0.0000 H   0  0  0  0  0  0  0  0  0  0  0  0
    4.2177    3.8848    0.0000 H   0  0  0  0  0  0  0  0  0  0  0  0
    6.8848    3.0132    0.0000 H   0  0  0  0  0  0  0  0  0  0  0  0
    2.3291    2.2833    0.0000 H   0  0  0  0  0  0  0  0  0  0  0  0
    3.4030    2.2833    0.0000 H   0  0  0  0  0  0  0  0  0  0  0  0
    2.3004   -5.9590    0.0000 H   0  0  0  0  0  0  0  0  0  0  0  0
    5.5069    5.0416    0.0000 H   0  0  0  0  0  0  0  0  0  0  0  0
    4.0926   -7.5122    0.0000 H   0  0  0  0  0  0  0  0  0  0  0  0
    6.7960    6.1983    0.0000 H   0  0  0  0  0  0  0  0  0  0  0  0
    8.0852    7.3551    0.0000 H   0  0  0  0  0  0  0  0  0  0  0  0
    8.6638    4.6094    0.0000 H   0  0  0  0  0  0  0  0  0  0  0  0
    9.6704    7.6891    0.0000 H   0  0  0  0  0  0  0  0  0  0  0  0
   10.2490    4.9435    0.0000 H   0  0  0  0  0  0  0  0  0  0  0  0
   12.0241    7.3196    0.0000 H   0  0  0  0  0  0  0  0  0  0  0  0
   11.6274    8.1016    0.0000 H   0  0  0  0  0  0  0  0  0  0  0  0
   10.8455    7.7049    0.0000 H   0  0  0  0  0  0  0  0  0  0  0  0
  1 13  1  0  0  0  0
  1 22  1  0  0  0  0
  2 18  1  0  0  0  0
  2 54  1  0  0  0  0
  3 25  1  0  0  0  0
  3 56  1  0  0  0  0
  4 31  2  0  0  0  0
  5 37  1  0  0  0  0
  5 38  1  0  0  0  0
  6  7  1  0  0  0  0
  6 17  1  0  0  0  0
  6 19  1  0  0  0  0
  7 24  2  0  0  0  0
  8 21  2  0  0  0  0
  8 23  1  0  0  0  0
  9 21  1  0  0  0  0
  9 52  1  0  0  0  0
  9 53  1  0  0  0  0
 10 28  1  0  0  0  0
 10 31  1  0  0  0  0
 10 55  1  0  0  0  0
 11 31  1  0  0  0  0
 11 32  1  0  0  0  0
 11 57  1  0  0  0  0
 12 13  2  0  0  0  0
 12 15  1  0  0  0  0
 12 21  1  0  0  0  0
 13 14  1  0  0  0  0
 14 16  1  0  0  0  0
 14 23  2  0  0  0  0
 15 20  1  0  0  0  0
 15 22  2  0  0  0  0
 16 19  2  0  0  0  0
 16 24  1  0  0  0  0
 17 18  1  0  0  0  0
 17 39  1  0  0  0  0
 17 40  1  0  0  0  0
 18 25  1  0  0  0  0
 18 41  1  0  0  0  0
 19 42  1  0  0  0  0
 20 26  2  0  0  0  0
 20 27  1  0  0  0  0
 22 43  1  0  0  0  0
 23 44  1  0  0  0  0
 24 45  1  0  0  0  0
 25 46  1  0  0  0  0
 25 47  1  0  0  0  0
 26 29  1  0  0  0  0
 26 48  1  0  0  0  0
 27 30  2  0  0  0  0
 27 49  1  0  0  0  0
 28 29  2  0  0  0  0
 28 30  1  0  0  0  0
 29 50  1  0  0  0  0
 30 51  1  0  0  0  0
 32 33  2  0  0  0  0
 32 34  1  0  0  0  0
 33 35  1  0  0  0  0
 33 58  1  0  0  0  0
 34 36  2  0  0  0  0
 34 59  1  0  0  0  0
 35 37  2  0  0  0  0
 35 60  1  0  0  0  0
 36 37  1  0  0  0  0
 36 61  1  0  0  0  0
 38 62  1  0  0  0  0
 38 63  1  0  0  0  0
 38 64  1  0  0  0  0
M  END
> <PUBCHEM_COMPOUND_CID>
49830345

> <PUBCHEM_COMPOUND_CANONICALIZED>
1

> <PUBCHEM_CACTVS_COMPLEXITY>
766

> <PUBCHEM_CACTVS_HBOND_ACCEPTOR>
8

> <PUBCHEM_CACTVS_HBOND_DONOR>
5

> <PUBCHEM_CACTVS_ROTATABLE_BOND>
8

> <PUBCHEM_CACTVS_SUBSKEYS>
AAADceB7uABAAAAAAAAAAAAAAAAAAWJAAAA8YIAAAAAAAFgB/gAAHgQYCAAADBzl2ga/99LIFgiuAjZndACTjKkxqjAY2DAubJiPNuLk8duE9Cxu3BP56CewwMAOiEAAAAAAAAAQgAAAAAAAAAAAAAAAAA==

> <PUBCHEM_IUPAC_OPENEYE_NAME>
1-[4-[4-amino-7-[1-(2,3-dihydroxypropyl)pyrazol-4-yl]thieno[3,2-c]pyridin-3-yl]phenyl]-3-(4-methoxyphenyl)urea

> <PUBCHEM_IUPAC_CAS_NAME>
1-[4-[4-amino-7-[1-(2,3-dihydroxypropyl)-4-pyrazolyl]-3-thieno[3,2-c]pyridinyl]phenyl]-3-(4-methoxyphenyl)urea

> <PUBCHEM_IUPAC_NAME_MARKUP>
1-[4-[4-amino-7-[1-(2,3-dihydroxypropyl)pyrazol-4-yl]thieno[3,2-c]pyridin-3-yl]phenyl]-3-(4-methoxyphenyl)urea

> <PUBCHEM_IUPAC_NAME>
1-[4-[4-amino-7-[1-(2,3-dihydroxypropyl)pyrazol-4-yl]thieno[3,2-c]pyridin-3-yl]phenyl]-3-(4-methoxyphenyl)urea

> <PUBCHEM_IUPAC_SYSTEMATIC_NAME>
1-[4-[4-azanyl-7-[1-[2,3-bis(oxidanyl)propyl]pyrazol-4-yl]thieno[3,2-c]pyridin-3-yl]phenyl]-3-(4-methoxyphenyl)urea

> <PUBCHEM_IUPAC_TRADITIONAL_NAME>
1-[4-[4-amino-7-(1-glycerylpyrazol-4-yl)thieno[3,2-c]pyridin-3-yl]phenyl]-3-(4-methoxyphenyl)urea

> <PUBCHEM_IUPAC_INCHI>
InChI=1S/C27H26N6O4S/c1-37-21-8-6-19(7-9-21)32-27(36)31-18-4-2-16(3-5-18)23-15-38-25-22(11-29-26(28)24(23)25)17-10-30-33(12-17)13-20(35)14-34/h2-12,15,20,34-35H,13-14H2,1H3,(H2,28,29)(H2,31,32,36)

> <PUBCHEM_IUPAC_INCHIKEY>
BRTHUECZMVKNMQ-UHFFFAOYSA-N

> <PUBCHEM_XLOGP3_AA>
2.3

> <PUBCHEM_EXACT_MASS>
530.17362451

> <PUBCHEM_MOLECULAR_FORMULA>
C27H26N6O4S

> <PUBCHEM_MOLECULAR_WEIGHT>
530.6

> <PUBCHEM_SMILES>
COC1=CC=C(C=C1)NC(=O)NC2=CC=C(C=C2)C3=CSC4=C3C(=NC=C4C5=CN(N=C5)CC(CO)O)N

> <PUBCHEM_OPENEYE_CAN_SMILES>
COC1=CC=C(C=C1)NC(=O)NC2=CC=C(C=C2)C3=CSC4=C3C(=NC=C4C5=CN(N=C5)CC(CO)O)N

> <PUBCHEM_OPENEYE_ISO_SMILES>
COC1=CC=C(C=C1)NC(=O)NC2=CC=C(C=C2)C3=CSC4=C3C(=NC=C4C5=CN(N=C5)CC(CO)O)N

> <PUBCHEM_CACTVS_TPSA>
176

> <PUBCHEM_MONOISOTOPIC_WEIGHT>
530.17362451

> <PUBCHEM_TOTAL_CHARGE>
0

> <PUBCHEM_HEAVY_ATOM_COUNT>
38

> <PUBCHEM_ATOM_DEF_STEREO_COUNT>
0

> <PUBCHEM_ATOM_UDEF_STEREO_COUNT>
1

> <PUBCHEM_BOND_DEF_STEREO_COUNT>
0

> <PUBCHEM_BOND_UDEF_STEREO_COUNT>
0

> <PUBCHEM_ISOTOPIC_ATOM_COUNT>
0

> <PUBCHEM_COMPONENT_COUNT>
1

> <PUBCHEM_CACTVS_TAUTO_COUNT>
-1

> <PUBCHEM_COORDINATE_TYPE>
1
5
255

> <PUBCHEM_BONDANNOTATIONS>
1  13  8
1  22  8
12  13  8
12  15  8
12  21  8
13  14  8
14  23  8
15  22  8
16  19  8
16  24  8
18  2  3
20  26  8
20  27  8
26  29  8
27  30  8
28  29  8
28  30  8
32  33  8
32  34  8
33  35  8
34  36  8
35  37  8
36  37  8
6  19  8
6  7  8
7  24  8
8  21  8
8  23  8

$$$$
