49830413
  -OEChem-03202503472D

 79 85  0     0  0  0  0  0  0999 V2000
    9.9851   -1.8784    0.0000 S   0  0  0  0  0  0  0  0  0  0  0  0
    7.5719    6.9280    0.0000 O   0  0  0  0  0  0  0  0  0  0  0  0
    3.5000   -1.0737    0.0000 O   0  0  0  0  0  0  0  0  0  0  0  0
    6.0000   -3.6718    0.0000 O   0  0  0  0  0  0  0  0  0  0  0  0
    6.2337    5.4417    0.0000 N   0  0  0  0  0  0  0  0  0  0  0  0
    9.0388   -0.5737    0.0000 N   0  0  0  0  0  0  0  0  0  0  0  0
    5.5135    2.0533    0.0000 N   0  0  0  0  0  0  0  0  0  0  0  0
    8.0878   -1.8827    0.0000 N   0  0  0  0  0  0  0  0  0  0  0  0
    6.8006    0.8943    0.0000 N   0  0  0  0  0  0  0  0  0  0  0  0
    4.5000   -2.8057    0.0000 N   0  0  0  0  0  0  0  0  0  0  0  0
    7.1607    2.5885    0.0000 N   0  0  0  0  0  0  0  0  0  0  0  0
    5.9247    6.3927    0.0000 C   0  0  0  0  0  0  0  0  0  0  0  0
    7.2118    5.2338    0.0000 C   0  0  0  0  0  0  0  0  0  0  0  0
    6.5938    7.1359    0.0000 C   0  0  0  0  0  0  0  0  0  0  0  0
    7.8810    5.9769    0.0000 C   0  0  0  0  0  0  0  0  0  0  0  0
    5.5646    4.6985    0.0000 C   0  0  0  0  0  0  0  0  0  0  0  0
    5.8736    3.7475    0.0000 C   0  0  0  0  0  0  0  0  0  0  0  0
    4.5864    4.9064    0.0000 C   0  0  0  0  0  0  0  0  0  0  0  0
    8.0878   -0.2647    0.0000 C   0  0  0  0  0  0  0  0  0  0  0  0
    5.2044    3.0043    0.0000 C   0  0  0  0  0  0  0  0  0  0  0  0
    7.5000   -1.0737    0.0000 C   0  0  0  0  0  0  0  0  0  0  0  0
    6.5000   -1.0737    0.0000 C   0  0  0  0  0  0  0  0  0  0  0  0
    3.9173    4.1633    0.0000 C   0  0  0  0  0  0  0  0  0  0  0  0
    9.0388   -1.5737    0.0000 C   0  0  0  0  0  0  0  0  0  0  0  0
    7.7788    0.6864    0.0000 C   0  0  0  0  0  0  0  0  0  0  0  0
    4.2263    3.2122    0.0000 C   0  0  0  0  0  0  0  0  0  0  0  0
    6.0000   -1.9397    0.0000 C   0  0  0  0  0  0  0  0  0  0  0  0
    9.9851   -0.2690    0.0000 C   0  0  0  0  0  0  0  0  0  0  0  0
    5.0000   -1.9397    0.0000 C   0  0  0  0  0  0  0  0  0  0  0  0
    6.0000   -0.2077    0.0000 C   0  0  0  0  0  0  0  0  0  0  0  0
    6.4916    1.8454    0.0000 C   0  0  0  0  0  0  0  0  0  0  0  0
    4.5000   -1.0737    0.0000 C   0  0  0  0  0  0  0  0  0  0  0  0
    8.4479    1.4295    0.0000 C   0  0  0  0  0  0  0  0  0  0  0  0
    5.0000   -0.2077    0.0000 C   0  0  0  0  0  0  0  0  0  0  0  0
   10.5687   -1.0737    0.0000 C   0  0  0  0  0  0  0  0  0  0  0  0
    8.1389    2.3806    0.0000 C   0  0  0  0  0  0  0  0  0  0  0  0
    5.0000   -3.6718    0.0000 C   0  0  0  0  0  0  0  0  0  0  0  0
    4.5000   -4.5378    0.0000 C   0  0  0  0  0  0  0  0  0  0  0  0
    5.0000   -5.4038    0.0000 C   0  0  0  0  0  0  0  0  0  0  0  0
    3.0000   -0.2077    0.0000 C   0  0  0  0  0  0  0  0  0  0  0  0
    4.5000   -6.2698    0.0000 C   0  0  0  0  0  0  0  0  0  0  0  0
    6.0000   -5.4038    0.0000 C   0  0  0  0  0  0  0  0  0  0  0  0
    2.0000   -0.2077    0.0000 C   0  0  0  0  0  0  0  0  0  0  0  0
    5.0000   -7.1359    0.0000 C   0  0  0  0  0  0  0  0  0  0  0  0
    6.5000   -6.2698    0.0000 C   0  0  0  0  0  0  0  0  0  0  0  0
    6.0000   -7.1359    0.0000 C   0  0  0  0  0  0  0  0  0  0  0  0
    5.5430    6.8813    0.0000 H   0  0  0  0  0  0  0  0  0  0  0  0
    5.3772    6.1016    0.0000 H   0  0  0  0  0  0  0  0  0  0  0  0
    6.9796    4.6589    0.0000 H   0  0  0  0  0  0  0  0  0  0  0  0
    7.7376    4.9052    0.0000 H   0  0  0  0  0  0  0  0  0  0  0  0
    6.8260    7.7107    0.0000 H   0  0  0  0  0  0  0  0  0  0  0  0
    6.0680    7.4644    0.0000 H   0  0  0  0  0  0  0  0  0  0  0  0
    8.2627    5.4883    0.0000 H   0  0  0  0  0  0  0  0  0  0  0  0
    8.4284    6.2680    0.0000 H   0  0  0  0  0  0  0  0  0  0  0  0
    6.4800    3.6186    0.0000 H   0  0  0  0  0  0  0  0  0  0  0  0
    4.3948    5.4961    0.0000 H   0  0  0  0  0  0  0  0  0  0  0  0
    3.3108    4.2922    0.0000 H   0  0  0  0  0  0  0  0  0  0  0  0
    3.8114    2.7515    0.0000 H   0  0  0  0  0  0  0  0  0  0  0  0
    5.0986    1.5925    0.0000 H   0  0  0  0  0  0  0  0  0  0  0  0
    6.3100   -2.4766    0.0000 H   0  0  0  0  0  0  0  0  0  0  0  0
   10.1777    0.3204    0.0000 H   0  0  0  0  0  0  0  0  0  0  0  0
    6.3100    0.3293    0.0000 H   0  0  0  0  0  0  0  0  0  0  0  0
    9.0544    1.3006    0.0000 H   0  0  0  0  0  0  0  0  0  0  0  0
    4.6900    0.3293    0.0000 H   0  0  0  0  0  0  0  0  0  0  0  0
   11.1887   -1.0737    0.0000 H   0  0  0  0  0  0  0  0  0  0  0  0
    3.8800   -2.8057    0.0000 H   0  0  0  0  0  0  0  0  0  0  0  0
    8.5537    2.8413    0.0000 H   0  0  0  0  0  0  0  0  0  0  0  0
    4.0250   -4.1393    0.0000 H   0  0  0  0  0  0  0  0  0  0  0  0
    4.0250   -4.9363    0.0000 H   0  0  0  0  0  0  0  0  0  0  0  0
    3.5826    0.0044    0.0000 H   0  0  0  0  0  0  0  0  0  0  0  0
    2.8923    0.4029    0.0000 H   0  0  0  0  0  0  0  0  0  0  0  0
    3.8800   -6.2698    0.0000 H   0  0  0  0  0  0  0  0  0  0  0  0
    6.3100   -4.8669    0.0000 H   0  0  0  0  0  0  0  0  0  0  0  0
    2.0000    0.4123    0.0000 H   0  0  0  0  0  0  0  0  0  0  0  0
    1.3800   -0.2077    0.0000 H   0  0  0  0  0  0  0  0  0  0  0  0
    2.0000   -0.8277    0.0000 H   0  0  0  0  0  0  0  0  0  0  0  0
    4.6900   -7.6728    0.0000 H   0  0  0  0  0  0  0  0  0  0  0  0
    7.1200   -6.2698    0.0000 H   0  0  0  0  0  0  0  0  0  0  0  0
    6.3100   -7.6728    0.0000 H   0  0  0  0  0  0  0  0  0  0  0  0
  1 24  1  0  0  0  0
  1 35  1  0  0  0  0
  2 14  1  0  0  0  0
  2 15  1  0  0  0  0
  3 32  1  0  0  0  0
  3 40  1  0  0  0  0
  4 37  2  0  0  0  0
  5 12  1  0  0  0  0
  5 13  1  0  0  0  0
  5 16  1  0  0  0  0
  6 19  1  0  0  0  0
  6 24  1  0  0  0  0
  6 28  1  0  0  0  0
  7 20  1  0  0  0  0
  7 31  1  0  0  0  0
  7 59  1  0  0  0  0
  8 21  1  0  0  0  0
  8 24  2  0  0  0  0
  9 25  2  0  0  0  0
  9 31  1  0  0  0  0
 10 29  1  0  0  0  0
 10 37  1  0  0  0  0
 10 66  1  0  0  0  0
 11 31  2  0  0  0  0
 11 36  1  0  0  0  0
 12 14  1  0  0  0  0
 12 47  1  0  0  0  0
 12 48  1  0  0  0  0
 13 15  1  0  0  0  0
 13 49  1  0  0  0  0
 13 50  1  0  0  0  0
 14 51  1  0  0  0  0
 14 52  1  0  0  0  0
 15 53  1  0  0  0  0
 15 54  1  0  0  0  0
 16 17  1  0  0  0  0
 16 18  2  0  0  0  0
 17 20  2  0  0  0  0
 17 55  1  0  0  0  0
 18 23  1  0  0  0  0
 18 56  1  0  0  0  0
 19 21  2  0  0  0  0
 19 25  1  0  0  0  0
 20 26  1  0  0  0  0
 21 22  1  0  0  0  0
 22 27  2  0  0  0  0
 22 30  1  0  0  0  0
 23 26  2  0  0  0  0
 23 57  1  0  0  0  0
 25 33  1  0  0  0  0
 26 58  1  0  0  0  0
 27 29  1  0  0  0  0
 27 60  1  0  0  0  0
 28 35  2  0  0  0  0
 28 61  1  0  0  0  0
 29 32  2  0  0  0  0
 30 34  2  0  0  0  0
 30 62  1  0  0  0  0
 32 34  1  0  0  0  0
 33 36  2  0  0  0  0
 33 63  1  0  0  0  0
 34 64  1  0  0  0  0
 35 65  1  0  0  0  0
 36 67  1  0  0  0  0
 37 38  1  0  0  0  0
 38 39  1  0  0  0  0
 38 68  1  0  0  0  0
 38 69  1  0  0  0  0
 39 41  2  0  0  0  0
 39 42  1  0  0  0  0
 40 43  1  0  0  0  0
 40 70  1  0  0  0  0
 40 71  1  0  0  0  0
 41 44  1  0  0  0  0
 41 72  1  0  0  0  0
 42 45  2  0  0  0  0
 42 73  1  0  0  0  0
 43 74  1  0  0  0  0
 43 75  1  0  0  0  0
 43 76  1  0  0  0  0
 44 46  2  0  0  0  0
 44 77  1  0  0  0  0
 45 46  1  0  0  0  0
 45 78  1  0  0  0  0
 46 79  1  0  0  0  0
M  END
> <PUBCHEM_COMPOUND_CID>
49830413

> <PUBCHEM_COMPOUND_CANONICALIZED>
1

> <PUBCHEM_CACTVS_COMPLEXITY>
968

> <PUBCHEM_CACTVS_HBOND_ACCEPTOR>
9

> <PUBCHEM_CACTVS_HBOND_DONOR>
2

> <PUBCHEM_CACTVS_ROTATABLE_BOND>
10

> <PUBCHEM_CACTVS_SUBSKEYS>
AAADcfB/sABAAAAAAAAAAAAAAAAAAWLAAAA8eMECAAAWAAAB/AAAHgQQAAAADAzl3ga/15fMHAisAzV3dACC+K1xOrhJ2C0/fJiObvLE/duXPCjs1BPY6CeY2OOOIAAAQAQAEABAAACACAAgAAAAAAAAAA==

> <PUBCHEM_IUPAC_OPENEYE_NAME>
N-[2-ethoxy-5-[5-[2-(3-morpholinoanilino)pyrimidin-4-yl]imidazo[2,1-b]thiazol-6-yl]phenyl]-2-phenyl-acetamide

> <PUBCHEM_IUPAC_CAS_NAME>
N-[2-ethoxy-5-[5-[2-[3-(4-morpholinyl)anilino]-4-pyrimidinyl]-6-imidazo[2,1-b]thiazolyl]phenyl]-2-phenylacetamide

> <PUBCHEM_IUPAC_NAME_MARKUP>
<I>N</I>-[2-ethoxy-5-[5-[2-(3-morpholin-4-ylanilino)pyrimidin-4-yl]imidazo[2,1-b][1,3]thiazol-6-yl]phenyl]-2-phenylacetamide

> <PUBCHEM_IUPAC_NAME>
N-[2-ethoxy-5-[5-[2-(3-morpholin-4-ylanilino)pyrimidin-4-yl]imidazo[2,1-b][1,3]thiazol-6-yl]phenyl]-2-phenylacetamide

> <PUBCHEM_IUPAC_SYSTEMATIC_NAME>
N-[2-ethoxy-5-[5-[2-[(3-morpholin-4-ylphenyl)amino]pyrimidin-4-yl]imidazo[2,1-b][1,3]thiazol-6-yl]phenyl]-2-phenyl-ethanamide

> <PUBCHEM_IUPAC_TRADITIONAL_NAME>
N-[2-ethoxy-5-[5-[2-(3-morpholinoanilino)pyrimidin-4-yl]imidazo[2,1-b]thiazol-6-yl]phenyl]-2-phenyl-acetamide

> <PUBCHEM_IUPAC_INCHI>
InChI=1S/C35H33N7O3S/c1-2-45-30-12-11-25(22-29(30)38-31(43)21-24-7-4-3-5-8-24)32-33(42-17-20-46-35(42)40-32)28-13-14-36-34(39-28)37-26-9-6-10-27(23-26)41-15-18-44-19-16-41/h3-14,17,20,22-23H,2,15-16,18-19,21H2,1H3,(H,38,43)(H,36,37,39)

> <PUBCHEM_IUPAC_INCHIKEY>
NCPXFACDZCEIQL-UHFFFAOYSA-N

> <PUBCHEM_XLOGP3_AA>
6.2

> <PUBCHEM_EXACT_MASS>
631.23655911

> <PUBCHEM_MOLECULAR_FORMULA>
C35H33N7O3S

> <PUBCHEM_MOLECULAR_WEIGHT>
631.7

> <PUBCHEM_SMILES>
CCOC1=C(C=C(C=C1)C2=C(N3C=CSC3=N2)C4=NC(=NC=C4)NC5=CC(=CC=C5)N6CCOCC6)NC(=O)CC7=CC=CC=C7

> <PUBCHEM_OPENEYE_CAN_SMILES>
CCOC1=C(C=C(C=C1)C2=C(N3C=CSC3=N2)C4=NC(=NC=C4)NC5=CC(=CC=C5)N6CCOCC6)NC(=O)CC7=CC=CC=C7

> <PUBCHEM_OPENEYE_ISO_SMILES>
CCOC1=C(C=C(C=C1)C2=C(N3C=CSC3=N2)C4=NC(=NC=C4)NC5=CC(=CC=C5)N6CCOCC6)NC(=O)CC7=CC=CC=C7

> <PUBCHEM_CACTVS_TPSA>
134

> <PUBCHEM_MONOISOTOPIC_WEIGHT>
631.23655911

> <PUBCHEM_TOTAL_CHARGE>
0

> <PUBCHEM_HEAVY_ATOM_COUNT>
46

> <PUBCHEM_ATOM_DEF_STEREO_COUNT>
0

> <PUBCHEM_ATOM_UDEF_STEREO_COUNT>
0

> <PUBCHEM_BOND_DEF_STEREO_COUNT>
0

> <PUBCHEM_BOND_UDEF_STEREO_COUNT>
0

> <PUBCHEM_ISOTOPIC_ATOM_COUNT>
0

> <PUBCHEM_COMPONENT_COUNT>
1

> <PUBCHEM_CACTVS_TAUTO_COUNT>
-1

> <PUBCHEM_COORDINATE_TYPE>
1
5
255

> <PUBCHEM_BONDANNOTATIONS>
1  24  8
1  35  8
11  31  8
11  36  8
16  17  8
16  18  8
17  20  8
18  23  8
19  21  8
20  26  8
22  27  8
22  30  8
23  26  8
25  33  8
27  29  8
28  35  8
29  32  8
30  34  8
32  34  8
33  36  8
39  41  8
39  42  8
41  44  8
42  45  8
44  46  8
45  46  8
6  19  8
6  24  8
6  28  8
8  21  8
8  24  8
9  25  8
9  31  8

$$$$
