5330279
  -OEChem-03202505492D

 63 67  0     0  0  0  0  0  0999 V2000
    2.8660   -0.4601    0.0000 O   0  0  0  0  0  0  0  0  0  0  0  0
    2.0000    1.0398    0.0000 O   0  0  0  0  0  0  0  0  0  0  0  0
    4.5981   -0.4601    0.0000 N   0  0  0  0  0  0  0  0  0  0  0  0
    6.3580   -0.4948    0.0000 N   0  0  0  0  0  0  0  0  0  0  0  0
   11.6000    1.5023    0.0000 N   0  0  0  0  0  0  0  0  0  0  0  0
   13.3359    2.4956    0.0000 N   0  0  0  0  0  0  0  0  0  0  0  0
    7.2641    1.0607    0.0000 N   0  0  0  0  0  0  0  0  0  0  0  0
    8.1282   -0.4843    0.0000 N   0  0  0  0  0  0  0  0  0  0  0  0
    4.5981   -1.4602    0.0000 C   0  0  0  0  0  0  0  0  0  0  0  0
    3.7891   -2.0479    0.0000 C   0  0  0  0  0  0  0  0  0  0  0  0
    5.4071   -2.0479    0.0000 C   0  0  0  0  0  0  0  0  0  0  0  0
    4.0981   -2.9990    0.0000 C   0  0  0  0  0  0  0  0  0  0  0  0
    5.0981   -2.9990    0.0000 C   0  0  0  0  0  0  0  0  0  0  0  0
    5.4641    0.0399    0.0000 C   0  0  0  0  0  0  0  0  0  0  0  0
    3.7320    0.0399    0.0000 C   0  0  0  0  0  0  0  0  0  0  0  0
    5.4641    1.0398    0.0000 C   0  0  0  0  0  0  0  0  0  0  0  0
    3.7320    1.0398    0.0000 C   0  0  0  0  0  0  0  0  0  0  0  0
    4.5981    1.5398    0.0000 C   0  0  0  0  0  0  0  0  0  0  0  0
    6.3580    1.5745    0.0000 C   0  0  0  0  0  0  0  0  0  0  0  0
    4.5981    2.5398    0.0000 C   0  0  0  0  0  0  0  0  0  0  0  0
   12.4641    0.9990    0.0000 C   0  0  0  0  0  0  0  0  0  0  0  0
   11.6038    2.5023    0.0000 C   0  0  0  0  0  0  0  0  0  0  0  0
    2.8660    1.5398    0.0000 C   0  0  0  0  0  0  0  0  0  0  0  0
    7.2641    0.0190    0.0000 C   0  0  0  0  0  0  0  0  0  0  0  0
   13.3320    1.4957    0.0000 C   0  0  0  0  0  0  0  0  0  0  0  0
   12.4718    2.9990    0.0000 C   0  0  0  0  0  0  0  0  0  0  0  0
   10.7320    1.0057    0.0000 C   0  0  0  0  0  0  0  0  0  0  0  0
    8.9962    0.0124    0.0000 C   0  0  0  0  0  0  0  0  0  0  0  0
    2.8660    2.5398    0.0000 C   0  0  0  0  0  0  0  0  0  0  0  0
    9.8680    1.5090    0.0000 C   0  0  0  0  0  0  0  0  0  0  0  0
   10.7282    0.0057    0.0000 C   0  0  0  0  0  0  0  0  0  0  0  0
    9.0000    1.0124    0.0000 C   0  0  0  0  0  0  0  0  0  0  0  0
    9.8602   -0.4910    0.0000 C   0  0  0  0  0  0  0  0  0  0  0  0
    5.1505   -1.1787    0.0000 H   0  0  0  0  0  0  0  0  0  0  0  0
    3.4791   -1.5110    0.0000 H   0  0  0  0  0  0  0  0  0  0  0  0
    3.2227   -2.3001    0.0000 H   0  0  0  0  0  0  0  0  0  0  0  0
    5.9735   -2.3001    0.0000 H   0  0  0  0  0  0  0  0  0  0  0  0
    5.7171   -1.5110    0.0000 H   0  0  0  0  0  0  0  0  0  0  0  0
    3.4916   -3.1279    0.0000 H   0  0  0  0  0  0  0  0  0  0  0  0
    4.1629   -3.6156    0.0000 H   0  0  0  0  0  0  0  0  0  0  0  0
    5.0333   -3.6156    0.0000 H   0  0  0  0  0  0  0  0  0  0  0  0
    5.7045   -3.1279    0.0000 H   0  0  0  0  0  0  0  0  0  0  0  0
    6.3509    2.1945    0.0000 H   0  0  0  0  0  0  0  0  0  0  0  0
   12.0637    0.5256    0.0000 H   0  0  0  0  0  0  0  0  0  0  0  0
   12.8608    0.5225    0.0000 H   0  0  0  0  0  0  0  0  0  0  0  0
   11.3940    3.0858    0.0000 H   0  0  0  0  0  0  0  0  0  0  0  0
   10.9929    2.3970    0.0000 H   0  0  0  0  0  0  0  0  0  0  0  0
    5.2181    2.5398    0.0000 H   0  0  0  0  0  0  0  0  0  0  0  0
    4.5981    3.1598    0.0000 H   0  0  0  0  0  0  0  0  0  0  0  0
    3.9781    2.5398    0.0000 H   0  0  0  0  0  0  0  0  0  0  0  0
   13.5418    0.9122    0.0000 H   0  0  0  0  0  0  0  0  0  0  0  0
   13.9430    1.6010    0.0000 H   0  0  0  0  0  0  0  0  0  0  0  0
   12.8721    3.4724    0.0000 H   0  0  0  0  0  0  0  0  0  0  0  0
   12.0751    3.4755    0.0000 H   0  0  0  0  0  0  0  0  0  0  0  0
   13.8740    2.8036    0.0000 H   0  0  0  0  0  0  0  0  0  0  0  0
    8.1258   -1.1043    0.0000 H   0  0  0  0  0  0  0  0  0  0  0  0
    3.4860    2.5398    0.0000 H   0  0  0  0  0  0  0  0  0  0  0  0
    2.8660    3.1598    0.0000 H   0  0  0  0  0  0  0  0  0  0  0  0
    2.2460    2.5398    0.0000 H   0  0  0  0  0  0  0  0  0  0  0  0
    9.8703    2.1290    0.0000 H   0  0  0  0  0  0  0  0  0  0  0  0
   11.2639   -0.3064    0.0000 H   0  0  0  0  0  0  0  0  0  0  0  0
    8.4643    1.3244    0.0000 H   0  0  0  0  0  0  0  0  0  0  0  0
    9.8578   -1.1110    0.0000 H   0  0  0  0  0  0  0  0  0  0  0  0
  1 15  2  0  0  0  0
  2 23  2  0  0  0  0
  3  9  1  0  0  0  0
  3 14  1  0  0  0  0
  3 15  1  0  0  0  0
  4 14  2  0  0  0  0
  4 24  1  0  0  0  0
  5 21  1  0  0  0  0
  5 22  1  0  0  0  0
  5 27  1  0  0  0  0
  6 25  1  0  0  0  0
  6 26  1  0  0  0  0
  6 55  1  0  0  0  0
  7 19  1  0  0  0  0
  7 24  2  0  0  0  0
  8 24  1  0  0  0  0
  8 28  1  0  0  0  0
  8 56  1  0  0  0  0
  9 10  1  0  0  0  0
  9 11  1  0  0  0  0
  9 34  1  0  0  0  0
 10 12  1  0  0  0  0
 10 35  1  0  0  0  0
 10 36  1  0  0  0  0
 11 13  1  0  0  0  0
 11 37  1  0  0  0  0
 11 38  1  0  0  0  0
 12 13  1  0  0  0  0
 12 39  1  0  0  0  0
 12 40  1  0  0  0  0
 13 41  1  0  0  0  0
 13 42  1  0  0  0  0
 14 16  1  0  0  0  0
 15 17  1  0  0  0  0
 16 18  1  0  0  0  0
 16 19  2  0  0  0  0
 17 18  2  0  0  0  0
 17 23  1  0  0  0  0
 18 20  1  0  0  0  0
 19 43  1  0  0  0  0
 20 48  1  0  0  0  0
 20 49  1  0  0  0  0
 20 50  1  0  0  0  0
 21 25  1  0  0  0  0
 21 44  1  0  0  0  0
 21 45  1  0  0  0  0
 22 26  1  0  0  0  0
 22 46  1  0  0  0  0
 22 47  1  0  0  0  0
 23 29  1  0  0  0  0
 25 51  1  0  0  0  0
 25 52  1  0  0  0  0
 26 53  1  0  0  0  0
 26 54  1  0  0  0  0
 27 30  2  0  0  0  0
 27 31  1  0  0  0  0
 28 32  2  0  0  0  0
 28 33  1  0  0  0  0
 29 57  1  0  0  0  0
 29 58  1  0  0  0  0
 29 59  1  0  0  0  0
 30 32  1  0  0  0  0
 30 60  1  0  0  0  0
 31 33  2  0  0  0  0
 31 61  1  0  0  0  0
 32 62  1  0  0  0  0
 33 63  1  0  0  0  0
M  END
> <PUBCHEM_COMPOUND_CID>
5330279

> <PUBCHEM_COMPOUND_CANONICALIZED>
1

> <PUBCHEM_CACTVS_COMPLEXITY>
765

> <PUBCHEM_CACTVS_HBOND_ACCEPTOR>
7

> <PUBCHEM_CACTVS_HBOND_DONOR>
2

> <PUBCHEM_CACTVS_ROTATABLE_BOND>
5

> <PUBCHEM_CACTVS_SUBSKEYS>
AAADceB7sAAAAAAAAAAAAAAAAAAAAYAAAAA8WIEAAAAAAACBwAAAHgAQAAAADCzBmgQ/8JfIEACoArd3dACCgCkxAqAJ2KEoZNiIaLrI2dGUJAholwLIyScQAAAIAACAAAAAAAAAAQAAAAAAAAAAAAAAAA==

> <PUBCHEM_IUPAC_OPENEYE_NAME>
6-acetyl-8-cyclopentyl-5-methyl-2-(4-piperazin-1-ylanilino)pyrido[2,3-d]pyrimidin-7-one

> <PUBCHEM_IUPAC_CAS_NAME>
6-acetyl-8-cyclopentyl-5-methyl-2-[4-(1-piperazinyl)anilino]-7-pyrido[2,3-d]pyrimidinone

> <PUBCHEM_IUPAC_NAME_MARKUP>
6-acetyl-8-cyclopentyl-5-methyl-2-(4-piperazin-1-ylanilino)pyrido[2,3-d]pyrimidin-7-one

> <PUBCHEM_IUPAC_NAME>
6-acetyl-8-cyclopentyl-5-methyl-2-(4-piperazin-1-ylanilino)pyrido[2,3-d]pyrimidin-7-one

> <PUBCHEM_IUPAC_SYSTEMATIC_NAME>
8-cyclopentyl-6-ethanoyl-5-methyl-2-[(4-piperazin-1-ylphenyl)amino]pyrido[2,3-d]pyrimidin-7-one

> <PUBCHEM_IUPAC_TRADITIONAL_NAME>
6-acetyl-8-cyclopentyl-5-methyl-2-(4-piperazinoanilino)pyrido[2,3-d]pyrimidin-7-one

> <PUBCHEM_IUPAC_INCHI>
InChI=1S/C25H30N6O2/c1-16-21-15-27-25(28-18-7-9-19(10-8-18)30-13-11-26-12-14-30)29-23(21)31(20-5-3-4-6-20)24(33)22(16)17(2)32/h7-10,15,20,26H,3-6,11-14H2,1-2H3,(H,27,28,29)

> <PUBCHEM_IUPAC_INCHIKEY>
QJWIKMKAGFNAJH-UHFFFAOYSA-N

> <PUBCHEM_XLOGP3_AA>
2.6

> <PUBCHEM_EXACT_MASS>
446.24302422

> <PUBCHEM_MOLECULAR_FORMULA>
C25H30N6O2

> <PUBCHEM_MOLECULAR_WEIGHT>
446.5

> <PUBCHEM_SMILES>
CC1=C(C(=O)N(C2=NC(=NC=C12)NC3=CC=C(C=C3)N4CCNCC4)C5CCCC5)C(=O)C

> <PUBCHEM_OPENEYE_CAN_SMILES>
CC1=C(C(=O)N(C2=NC(=NC=C12)NC3=CC=C(C=C3)N4CCNCC4)C5CCCC5)C(=O)C

> <PUBCHEM_OPENEYE_ISO_SMILES>
CC1=C(C(=O)N(C2=NC(=NC=C12)NC3=CC=C(C=C3)N4CCNCC4)C5CCCC5)C(=O)C

> <PUBCHEM_CACTVS_TPSA>
90.5

> <PUBCHEM_MONOISOTOPIC_WEIGHT>
446.24302422

> <PUBCHEM_TOTAL_CHARGE>
0

> <PUBCHEM_HEAVY_ATOM_COUNT>
33

> <PUBCHEM_ATOM_DEF_STEREO_COUNT>
0

> <PUBCHEM_ATOM_UDEF_STEREO_COUNT>
0

> <PUBCHEM_BOND_DEF_STEREO_COUNT>
0

> <PUBCHEM_BOND_UDEF_STEREO_COUNT>
0

> <PUBCHEM_ISOTOPIC_ATOM_COUNT>
0

> <PUBCHEM_COMPONENT_COUNT>
1

> <PUBCHEM_CACTVS_TAUTO_COUNT>
-1

> <PUBCHEM_COORDINATE_TYPE>
1
5
255

> <PUBCHEM_BONDANNOTATIONS>
14  16  8
15  17  8
16  18  8
16  19  8
17  18  8
27  30  8
27  31  8
28  32  8
28  33  8
3  14  8
3  15  8
30  32  8
31  33  8
4  14  8
4  24  8
7  19  8
7  24  8

$$$$
