23647201
  -OEChem-03202504382D

 28 30  0     0  0  0  0  0  0999 V2000
    2.0000    0.8263    0.0000 Cl  0  0  0  0  0  0  0  0  0  0  0  0
    7.9637    2.5079    0.0000 F   0  0  0  0  0  0  0  0  0  0  0  0
    8.6036    1.2467    0.0000 F   0  0  0  0  0  0  0  0  0  0  0  0
    6.7025    1.8680    0.0000 F   0  0  0  0  0  0  0  0  0  0  0  0
    5.5301   -2.1979    0.0000 O   0  0  0  0  0  0  0  0  0  0  0  0
    5.5301    1.8021    0.0000 O   0  0  0  0  0  0  0  0  0  0  0  0
    5.5301   -1.1979    0.0000 N   0  0  0  0  0  0  0  0  0  0  0  0
    7.3424   -1.0026    0.0000 N   0  0  0  0  0  0  0  0  0  0  0  0
    7.9260   -0.1979    0.0000 N   0  0  0  0  0  0  0  0  0  0  0  0
    6.3961   -0.6979    0.0000 C   0  0  0  0  0  0  0  0  0  0  0  0
    6.3961    0.3021    0.0000 C   0  0  0  0  0  0  0  0  0  0  0  0
    4.6641   -0.6979    0.0000 C   0  0  0  0  0  0  0  0  0  0  0  0
    4.6641    0.3021    0.0000 C   0  0  0  0  0  0  0  0  0  0  0  0
    7.3424    0.6068    0.0000 C   0  0  0  0  0  0  0  0  0  0  0  0
    5.5301    0.8021    0.0000 C   0  0  0  0  0  0  0  0  0  0  0  0
    3.7702   -1.2326    0.0000 C   0  0  0  0  0  0  0  0  0  0  0  0
    3.7702    0.8368    0.0000 C   0  0  0  0  0  0  0  0  0  0  0  0
    7.6530    1.5574    0.0000 C   0  0  0  0  0  0  0  0  0  0  0  0
    7.6530   -1.9531    0.0000 C   0  0  0  0  0  0  0  0  0  0  0  0
    2.8641   -0.7187    0.0000 C   0  0  0  0  0  0  0  0  0  0  0  0
    2.8641    0.3229    0.0000 C   0  0  0  0  0  0  0  0  0  0  0  0
    3.7773   -1.8525    0.0000 H   0  0  0  0  0  0  0  0  0  0  0  0
    3.7773    1.4567    0.0000 H   0  0  0  0  0  0  0  0  0  0  0  0
    7.0637   -2.1458    0.0000 H   0  0  0  0  0  0  0  0  0  0  0  0
    7.8456   -2.5425    0.0000 H   0  0  0  0  0  0  0  0  0  0  0  0
    8.2424   -1.7605    0.0000 H   0  0  0  0  0  0  0  0  0  0  0  0
    2.3284   -1.0308    0.0000 H   0  0  0  0  0  0  0  0  0  0  0  0
    4.9932   -2.5079    0.0000 H   0  0  0  0  0  0  0  0  0  0  0  0
  1 21  1  0  0  0  0
  2 18  1  0  0  0  0
  3 18  1  0  0  0  0
  4 18  1  0  0  0  0
  5  7  1  0  0  0  0
  5 28  1  0  0  0  0
  6 15  2  0  0  0  0
  7 10  1  0  0  0  0
  7 12  1  0  0  0  0
  8  9  1  0  0  0  0
  8 10  1  0  0  0  0
  8 19  1  0  0  0  0
  9 14  2  0  0  0  0
 10 11  2  0  0  0  0
 11 14  1  0  0  0  0
 11 15  1  0  0  0  0
 12 13  2  0  0  0  0
 12 16  1  0  0  0  0
 13 15  1  0  0  0  0
 13 17  1  0  0  0  0
 14 18  1  0  0  0  0
 16 20  2  0  0  0  0
 16 22  1  0  0  0  0
 17 21  2  0  0  0  0
 17 23  1  0  0  0  0
 19 24  1  0  0  0  0
 19 25  1  0  0  0  0
 19 26  1  0  0  0  0
 20 21  1  0  0  0  0
 20 27  1  0  0  0  0
M  END
> <PUBCHEM_COMPOUND_CID>
23647201

> <PUBCHEM_COMPOUND_CANONICALIZED>
1

> <PUBCHEM_CACTVS_COMPLEXITY>
450

> <PUBCHEM_CACTVS_HBOND_ACCEPTOR>
7

> <PUBCHEM_CACTVS_HBOND_DONOR>
1

> <PUBCHEM_CACTVS_ROTATABLE_BOND>
0

> <PUBCHEM_CACTVS_SUBSKEYS>
AAADcYBzMYAEAAAAAAAAAAAAAAAAAWAAAAA8QAAAAAAAAFixwAAAHwIMCAAADA6BnjQz8JIYAACqA6ZyZACSBAMlhwA92CEoZtiIIHrB39GEpYhoiALIyecYiMCOAABAIAACAAAAAIBAAAQAAAAAAAAAAA==

> <PUBCHEM_IUPAC_OPENEYE_NAME>
6-chloro-9-hydroxy-1-methyl-3-(trifluoromethyl)pyrazolo[3,4-b]quinolin-4-one

> <PUBCHEM_IUPAC_CAS_NAME>
6-chloro-9-hydroxy-1-methyl-3-(trifluoromethyl)-4-pyrazolo[3,4-b]quinolinone

> <PUBCHEM_IUPAC_NAME_MARKUP>
6-chloro-9-hydroxy-1-methyl-3-(trifluoromethyl)pyrazolo[3,4-b]quinolin-4-one

> <PUBCHEM_IUPAC_NAME>
6-chloro-9-hydroxy-1-methyl-3-(trifluoromethyl)pyrazolo[3,4-b]quinolin-4-one

> <PUBCHEM_IUPAC_SYSTEMATIC_NAME>
6-chloranyl-1-methyl-9-oxidanyl-3-(trifluoromethyl)pyrazolo[3,4-b]quinolin-4-one

> <PUBCHEM_IUPAC_TRADITIONAL_NAME>
6-chloro-9-hydroxy-1-methyl-3-(trifluoromethyl)pyrazolo[3,4-b]quinolin-4-one

> <PUBCHEM_IUPAC_INCHI>
InChI=1S/C12H7ClF3N3O2/c1-18-11-8(10(17-18)12(14,15)16)9(20)6-4-5(13)2-3-7(6)19(11)21/h2-4,21H,1H3

> <PUBCHEM_IUPAC_INCHIKEY>
PAMZHNHIZCTSRT-UHFFFAOYSA-N

> <PUBCHEM_XLOGP3_AA>
2.8

> <PUBCHEM_EXACT_MASS>
317.0178887

> <PUBCHEM_MOLECULAR_FORMULA>
C12H7ClF3N3O2

> <PUBCHEM_MOLECULAR_WEIGHT>
317.65

> <PUBCHEM_SMILES>
CN1C2=C(C(=O)C3=C(N2O)C=CC(=C3)Cl)C(=N1)C(F)(F)F

> <PUBCHEM_OPENEYE_CAN_SMILES>
CN1C2=C(C(=O)C3=C(N2O)C=CC(=C3)Cl)C(=N1)C(F)(F)F

> <PUBCHEM_OPENEYE_ISO_SMILES>
CN1C2=C(C(=O)C3=C(N2O)C=CC(=C3)Cl)C(=N1)C(F)(F)F

> <PUBCHEM_CACTVS_TPSA>
58.4

> <PUBCHEM_MONOISOTOPIC_WEIGHT>
317.0178887

> <PUBCHEM_TOTAL_CHARGE>
0

> <PUBCHEM_HEAVY_ATOM_COUNT>
21

> <PUBCHEM_ATOM_DEF_STEREO_COUNT>
0

> <PUBCHEM_ATOM_UDEF_STEREO_COUNT>
0

> <PUBCHEM_BOND_DEF_STEREO_COUNT>
0

> <PUBCHEM_BOND_UDEF_STEREO_COUNT>
0

> <PUBCHEM_ISOTOPIC_ATOM_COUNT>
0

> <PUBCHEM_COMPONENT_COUNT>
1

> <PUBCHEM_CACTVS_TAUTO_COUNT>
-1

> <PUBCHEM_COORDINATE_TYPE>
1
5
255

> <PUBCHEM_BONDANNOTATIONS>
10  11  8
11  14  8
11  15  8
12  13  8
12  16  8
13  15  8
13  17  8
16  20  8
17  21  8
20  21  8
7  10  8
7  12  8
8  10  8
8  9  8
9  14  8

$$$$
