135543617
  -OEChem-03202501122D

 42 46  0     1  0  0  0  0  0999 V2000
    5.1069   -0.9543    0.0000 O   0  0  0  0  0  0  0  0  0  0  0  0
    5.6464    3.8509    0.0000 O   0  0  0  0  0  0  0  0  0  0  0  0
    6.0771    0.4806    0.0000 N   0  0  0  0  0  0  0  0  0  0  0  0
    2.4757    1.0384    0.0000 N   0  0  0  0  0  0  0  0  0  0  0  0
    4.0480    4.4102    0.0000 N   0  0  0  0  0  0  0  0  0  0  0  0
    3.0480    4.4102    0.0000 N   0  0  0  0  0  0  0  0  0  0  0  0
    7.2720   -1.9763    0.0000 C   0  0  3  0  0  0  0  0  0  0  0  0
    6.8346   -1.0770    0.0000 C   0  0  3  0  0  0  0  0  0  0  0  0
    7.8321   -1.1479    0.0000 C   0  0  0  0  0  0  0  0  0  0  0  0
    7.2011   -2.9738    0.0000 C   0  0  0  0  0  0  0  0  0  0  0  0
    6.0062   -0.5169    0.0000 C   0  0  0  0  0  0  0  0  0  0  0  0
    8.0295   -3.5340    0.0000 C   0  0  0  0  0  0  0  0  0  0  0  0
    6.3018   -3.4112    0.0000 C   0  0  0  0  0  0  0  0  0  0  0  0
    5.2487    1.0407    0.0000 C   0  0  0  0  0  0  0  0  0  0  0  0
    7.9586   -4.5314    0.0000 C   0  0  0  0  0  0  0  0  0  0  0  0
    6.2309   -4.4086    0.0000 C   0  0  0  0  0  0  0  0  0  0  0  0
    4.3102    0.5888    0.0000 C   0  0  0  0  0  0  0  0  0  0  0  0
    7.0593   -4.9688    0.0000 C   0  0  0  0  0  0  0  0  0  0  0  0
    5.3185    2.0800    0.0000 C   0  0  0  0  0  0  0  0  0  0  0  0
    3.4541    1.1822    0.0000 C   0  0  0  0  0  0  0  0  0  0  0  0
    3.5480    2.2195    0.0000 C   0  0  0  0  0  0  0  0  0  0  0  0
    4.4489    2.6534    0.0000 C   0  0  0  0  0  0  0  0  0  0  0  0
    2.6470    2.6534    0.0000 C   0  0  0  0  0  0  0  0  0  0  0  0
    2.0000    1.9055    0.0000 C   0  0  0  0  0  0  0  0  0  0  0  0
    4.6715    3.6284    0.0000 C   0  0  0  0  0  0  0  0  0  0  0  0
    2.4245    3.6284    0.0000 C   0  0  0  0  0  0  0  0  0  0  0  0
    6.6632   -2.0939    0.0000 H   0  0  0  0  0  0  0  0  0  0  0  0
    7.0371   -0.4910    0.0000 H   0  0  0  0  0  0  0  0  0  0  0  0
    8.3982   -1.4008    0.0000 H   0  0  0  0  0  0  0  0  0  0  0  0
    7.9828   -0.5465    0.0000 H   0  0  0  0  0  0  0  0  0  0  0  0
    6.6346    0.7517    0.0000 H   0  0  0  0  0  0  0  0  0  0  0  0
    8.5870   -3.2628    0.0000 H   0  0  0  0  0  0  0  0  0  0  0  0
    5.7882   -3.0639    0.0000 H   0  0  0  0  0  0  0  0  0  0  0  0
    8.4722   -4.8787    0.0000 H   0  0  0  0  0  0  0  0  0  0  0  0
    5.6733   -4.6798    0.0000 H   0  0  0  0  0  0  0  0  0  0  0  0
    4.2615   -0.0293    0.0000 H   0  0  0  0  0  0  0  0  0  0  0  0
    5.8740    2.3554    0.0000 H   0  0  0  0  0  0  0  0  0  0  0  0
    7.0154   -5.5872    0.0000 H   0  0  0  0  0  0  0  0  0  0  0  0
    2.1995    0.4833    0.0000 H   0  0  0  0  0  0  0  0  0  0  0  0
    1.3835    1.9709    0.0000 H   0  0  0  0  0  0  0  0  0  0  0  0
    1.8200    3.7663    0.0000 H   0  0  0  0  0  0  0  0  0  0  0  0
    4.3170    4.9688    0.0000 H   0  0  0  0  0  0  0  0  0  0  0  0
  1 11  2  0  0  0  0
  2 25  2  0  0  0  0
  3 11  1  0  0  0  0
  3 14  1  0  0  0  0
  3 31  1  0  0  0  0
  4 20  1  0  0  0  0
  4 24  1  0  0  0  0
  4 39  1  0  0  0  0
  5  6  1  0  0  0  0
  5 25  1  0  0  0  0
  5 42  1  0  0  0  0
  6 26  2  0  0  0  0
  7  8  1  0  0  0  0
  7  9  1  0  0  0  0
  7 10  1  0  0  0  0
  7 27  1  0  0  0  0
  8  9  1  0  0  0  0
  8 11  1  0  0  0  0
  8 28  1  0  0  0  0
  9 29  1  0  0  0  0
  9 30  1  0  0  0  0
 10 12  2  0  0  0  0
 10 13  1  0  0  0  0
 12 15  1  0  0  0  0
 12 32  1  0  0  0  0
 13 16  2  0  0  0  0
 13 33  1  0  0  0  0
 14 17  1  0  0  0  0
 14 19  2  0  0  0  0
 15 18  2  0  0  0  0
 15 34  1  0  0  0  0
 16 18  1  0  0  0  0
 16 35  1  0  0  0  0
 17 20  2  0  0  0  0
 17 36  1  0  0  0  0
 18 38  1  0  0  0  0
 19 22  1  0  0  0  0
 19 37  1  0  0  0  0
 20 21  1  0  0  0  0
 21 22  2  0  0  0  0
 21 23  1  0  0  0  0
 22 25  1  0  0  0  0
 23 24  2  0  0  0  0
 23 26  1  0  0  0  0
 24 40  1  0  0  0  0
 26 41  1  0  0  0  0
M  END
> <PUBCHEM_COMPOUND_CID>
135543617

> <PUBCHEM_COMPOUND_CANONICALIZED>
1

> <PUBCHEM_CACTVS_COMPLEXITY>
615

> <PUBCHEM_CACTVS_HBOND_ACCEPTOR>
3

> <PUBCHEM_CACTVS_HBOND_DONOR>
3

> <PUBCHEM_CACTVS_ROTATABLE_BOND>
3

> <PUBCHEM_CACTVS_SUBSKEYS>
AAADceB7sAAAAAAAAAAAAAAAGAAAAWAAAAAwYAAABAAAAFiB9AAAHgAYAAAADQjBngQ8wPLrkACoAzV3VACSgCA1AiAa2aE4ZNgIIPLA1dGEJQhgnADIyYccicCOiAAAQAQSAAAQAACACCQAAAAAAAAAAA==

> <PUBCHEM_IUPAC_OPENEYE_NAME>
N-(9-oxo-3,10,11-triazatricyclo[6.4.1.04,13]trideca-1,4,6,8(13),11-pentaen-6-yl)-2-phenyl-cyclopropanecarboxamide

> <PUBCHEM_IUPAC_CAS_NAME>
N-(9-oxo-3,10,11-triazatricyclo[6.4.1.04,13]trideca-1,4,6,8(13),11-pentaen-6-yl)-2-phenyl-1-cyclopropanecarboxamide

> <PUBCHEM_IUPAC_NAME_MARKUP>
<I>N</I>-(9-oxo-3,10,11-triazatricyclo[6.4.1.0<SUP>4,13</SUP>]trideca-1,4,6,8(13),11-pentaen-6-yl)-2-phenylcyclopropane-1-carboxamide

> <PUBCHEM_IUPAC_NAME>
N-(9-oxo-3,10,11-triazatricyclo[6.4.1.04,13]trideca-1,4,6,8(13),11-pentaen-6-yl)-2-phenylcyclopropane-1-carboxamide

> <PUBCHEM_IUPAC_SYSTEMATIC_NAME>
N-(9-oxidanylidene-3,10,11-triazatricyclo[6.4.1.04,13]trideca-1,4,6,8(13),11-pentaen-6-yl)-2-phenyl-cyclopropane-1-carboxamide

> <PUBCHEM_IUPAC_TRADITIONAL_NAME>
N-(9-keto-3,10,11-triazatricyclo[6.4.1.04,13]trideca-1,4,6,8(13),11-pentaen-6-yl)-2-phenyl-cyclopropanecarboxamide

> <PUBCHEM_IUPAC_INCHI>
InChI=1S/C20H16N4O2/c25-19(15-8-14(15)11-4-2-1-3-5-11)23-13-6-16-18-12(9-21-17(18)7-13)10-22-24-20(16)26/h1-7,9-10,14-15,21H,8H2,(H,23,25)(H,24,26)

> <PUBCHEM_IUPAC_INCHIKEY>
ZKHDDJKHTPLPOQ-UHFFFAOYSA-N

> <PUBCHEM_XLOGP3_AA>
1.9

> <PUBCHEM_EXACT_MASS>
344.12732577

> <PUBCHEM_MOLECULAR_FORMULA>
C20H16N4O2

> <PUBCHEM_MOLECULAR_WEIGHT>
344.4

> <PUBCHEM_SMILES>
C1C(C1C(=O)NC2=CC3=C4C(=C2)NC=C4C=NNC3=O)C5=CC=CC=C5

> <PUBCHEM_OPENEYE_CAN_SMILES>
C1C(C1C(=O)NC2=CC3=C4C(=C2)NC=C4C=NNC3=O)C5=CC=CC=C5

> <PUBCHEM_OPENEYE_ISO_SMILES>
C1C(C1C(=O)NC2=CC3=C4C(=C2)NC=C4C=NNC3=O)C5=CC=CC=C5

> <PUBCHEM_CACTVS_TPSA>
86.4

> <PUBCHEM_MONOISOTOPIC_WEIGHT>
344.12732577

> <PUBCHEM_TOTAL_CHARGE>
0

> <PUBCHEM_HEAVY_ATOM_COUNT>
26

> <PUBCHEM_ATOM_DEF_STEREO_COUNT>
0

> <PUBCHEM_ATOM_UDEF_STEREO_COUNT>
2

> <PUBCHEM_BOND_DEF_STEREO_COUNT>
0

> <PUBCHEM_BOND_UDEF_STEREO_COUNT>
0

> <PUBCHEM_ISOTOPIC_ATOM_COUNT>
0

> <PUBCHEM_COMPONENT_COUNT>
1

> <PUBCHEM_CACTVS_TAUTO_COUNT>
-1

> <PUBCHEM_COORDINATE_TYPE>
1
5
255

> <PUBCHEM_BONDANNOTATIONS>
10  12  8
10  13  8
12  15  8
13  16  8
14  17  8
14  19  8
15  18  8
16  18  8
17  20  8
19  22  8
20  21  8
21  22  8
21  23  8
23  24  8
4  20  8
4  24  8
7  10  3
8  11  3

$$$$
