49830486
  -OEChem-03202502152D

 45 48  0     1  0  0  0  0  0999 V2000
    7.2764    1.5552    0.0000 S   0  0  0  0  0  0  0  0  0  0  0  0
    8.8600   -2.7136    0.0000 O   0  0  0  0  0  0  0  0  0  0  0  0
    8.8600    0.7505    0.0000 N   0  0  0  0  0  0  0  0  0  0  0  0
    7.2764   -0.0542    0.0000 N   0  0  0  0  0  0  0  0  0  0  0  0
    2.0000    2.7505    0.0000 N   0  0  0  0  0  0  0  0  0  0  0  0
    9.3600   -0.1155    0.0000 C   0  0  3  0  0  0  0  0  0  0  0  0
    8.8600   -0.9815    0.0000 C   0  0  0  0  0  0  0  0  0  0  0  0
   10.3600   -0.1155    0.0000 C   0  0  0  0  0  0  0  0  0  0  0  0
    9.3600   -1.8476    0.0000 C   0  0  0  0  0  0  0  0  0  0  0  0
    7.8600    0.7505    0.0000 C   0  0  0  0  0  0  0  0  0  0  0  0
    6.3301    1.2505    0.0000 C   0  0  0  0  0  0  0  0  0  0  0  0
   10.8600    0.7505    0.0000 C   0  0  0  0  0  0  0  0  0  0  0  0
   10.8600   -0.9815    0.0000 C   0  0  0  0  0  0  0  0  0  0  0  0
    6.3301    0.2505    0.0000 C   0  0  0  0  0  0  0  0  0  0  0  0
    4.5981    1.2505    0.0000 C   0  0  0  0  0  0  0  0  0  0  0  0
    5.4641    1.7505    0.0000 C   0  0  0  0  0  0  0  0  0  0  0  0
    5.4641   -0.2495    0.0000 C   0  0  0  0  0  0  0  0  0  0  0  0
   11.8600    0.7505    0.0000 C   0  0  0  0  0  0  0  0  0  0  0  0
   11.8600   -0.9815    0.0000 C   0  0  0  0  0  0  0  0  0  0  0  0
    4.5981    0.2505    0.0000 C   0  0  0  0  0  0  0  0  0  0  0  0
    3.7320    1.7505    0.0000 C   0  0  0  0  0  0  0  0  0  0  0  0
   12.3600   -0.1155    0.0000 C   0  0  0  0  0  0  0  0  0  0  0  0
    3.7320    2.7505    0.0000 C   0  0  0  0  0  0  0  0  0  0  0  0
    2.8660    1.2505    0.0000 C   0  0  0  0  0  0  0  0  0  0  0  0
    2.8660    3.2505    0.0000 C   0  0  0  0  0  0  0  0  0  0  0  0
    2.0000    1.7505    0.0000 C   0  0  0  0  0  0  0  0  0  0  0  0
    9.6700    0.4214    0.0000 H   0  0  0  0  0  0  0  0  0  0  0  0
    8.3850   -0.5830    0.0000 H   0  0  0  0  0  0  0  0  0  0  0  0
    8.3850   -1.3801    0.0000 H   0  0  0  0  0  0  0  0  0  0  0  0
    9.1700    1.2874    0.0000 H   0  0  0  0  0  0  0  0  0  0  0  0
    9.8349   -2.2461    0.0000 H   0  0  0  0  0  0  0  0  0  0  0  0
    9.8349   -1.4490    0.0000 H   0  0  0  0  0  0  0  0  0  0  0  0
   10.5500    1.2874    0.0000 H   0  0  0  0  0  0  0  0  0  0  0  0
   10.5500   -1.5185    0.0000 H   0  0  0  0  0  0  0  0  0  0  0  0
    5.4641    2.3705    0.0000 H   0  0  0  0  0  0  0  0  0  0  0  0
    5.4641   -0.8695    0.0000 H   0  0  0  0  0  0  0  0  0  0  0  0
   12.1700    1.2874    0.0000 H   0  0  0  0  0  0  0  0  0  0  0  0
   12.1700   -1.5185    0.0000 H   0  0  0  0  0  0  0  0  0  0  0  0
    4.0611   -0.0595    0.0000 H   0  0  0  0  0  0  0  0  0  0  0  0
   12.9800   -0.1155    0.0000 H   0  0  0  0  0  0  0  0  0  0  0  0
    9.1700   -3.2505    0.0000 H   0  0  0  0  0  0  0  0  0  0  0  0
    4.2690    3.0605    0.0000 H   0  0  0  0  0  0  0  0  0  0  0  0
    2.8660    0.6305    0.0000 H   0  0  0  0  0  0  0  0  0  0  0  0
    2.8660    3.8705    0.0000 H   0  0  0  0  0  0  0  0  0  0  0  0
    1.4631    1.4405    0.0000 H   0  0  0  0  0  0  0  0  0  0  0  0
  1 10  1  0  0  0  0
  1 11  1  0  0  0  0
  2  9  1  0  0  0  0
  2 41  1  0  0  0  0
  3  6  1  0  0  0  0
  3 10  1  0  0  0  0
  3 30  1  0  0  0  0
  4 10  2  0  0  0  0
  4 14  1  0  0  0  0
  5 25  2  0  0  0  0
  5 26  1  0  0  0  0
  6  7  1  0  0  0  0
  6  8  1  0  0  0  0
  6 27  1  0  0  0  0
  7  9  1  0  0  0  0
  7 28  1  0  0  0  0
  7 29  1  0  0  0  0
  8 12  2  0  0  0  0
  8 13  1  0  0  0  0
  9 31  1  0  0  0  0
  9 32  1  0  0  0  0
 11 14  2  0  0  0  0
 11 16  1  0  0  0  0
 12 18  1  0  0  0  0
 12 33  1  0  0  0  0
 13 19  2  0  0  0  0
 13 34  1  0  0  0  0
 14 17  1  0  0  0  0
 15 16  2  0  0  0  0
 15 20  1  0  0  0  0
 15 21  1  0  0  0  0
 16 35  1  0  0  0  0
 17 20  2  0  0  0  0
 17 36  1  0  0  0  0
 18 22  2  0  0  0  0
 18 37  1  0  0  0  0
 19 22  1  0  0  0  0
 19 38  1  0  0  0  0
 20 39  1  0  0  0  0
 21 23  2  0  0  0  0
 21 24  1  0  0  0  0
 22 40  1  0  0  0  0
 23 25  1  0  0  0  0
 23 42  1  0  0  0  0
 24 26  2  0  0  0  0
 24 43  1  0  0  0  0
 25 44  1  0  0  0  0
 26 45  1  0  0  0  0
M  END
> <PUBCHEM_COMPOUND_CID>
49830486

> <PUBCHEM_COMPOUND_CANONICALIZED>
1

> <PUBCHEM_CACTVS_COMPLEXITY>
425

> <PUBCHEM_CACTVS_HBOND_ACCEPTOR>
5

> <PUBCHEM_CACTVS_HBOND_DONOR>
2

> <PUBCHEM_CACTVS_ROTATABLE_BOND>
6

> <PUBCHEM_CACTVS_SUBSKEYS>
AAADceB7IABAAAAAAAAAAAAAAAAAAWAAAAA8YIAAAAAAAFgB/AAAHgQQCAAADCjh3gY90bLIEgikAzRnZACD8KlxCjlJ2Lw4ZJiIMOLgmZGEYAhukALIyCeQwOAOiAAAgAAAAQAQAAEAAAACAAAAAAAAAA==

> <PUBCHEM_IUPAC_OPENEYE_NAME>
3-phenyl-3-[[6-(4-pyridyl)-1,3-benzothiazol-2-yl]amino]propan-1-ol

> <PUBCHEM_IUPAC_CAS_NAME>
3-phenyl-3-[(6-pyridin-4-yl-1,3-benzothiazol-2-yl)amino]-1-propanol

> <PUBCHEM_IUPAC_NAME_MARKUP>
3-phenyl-3-[(6-pyridin-4-yl-1,3-benzothiazol-2-yl)amino]propan-1-ol

> <PUBCHEM_IUPAC_NAME>
3-phenyl-3-[(6-pyridin-4-yl-1,3-benzothiazol-2-yl)amino]propan-1-ol

> <PUBCHEM_IUPAC_SYSTEMATIC_NAME>
3-phenyl-3-[(6-pyridin-4-yl-1,3-benzothiazol-2-yl)amino]propan-1-ol

> <PUBCHEM_IUPAC_TRADITIONAL_NAME>
3-phenyl-3-[[6-(4-pyridyl)-1,3-benzothiazol-2-yl]amino]propan-1-ol

> <PUBCHEM_IUPAC_INCHI>
InChI=1S/C21H19N3OS/c25-13-10-18(16-4-2-1-3-5-16)23-21-24-19-7-6-17(14-20(19)26-21)15-8-11-22-12-9-15/h1-9,11-12,14,18,25H,10,13H2,(H,23,24)

> <PUBCHEM_IUPAC_INCHIKEY>
HOBMVEVXDIOMDM-UHFFFAOYSA-N

> <PUBCHEM_XLOGP3_AA>
5

> <PUBCHEM_EXACT_MASS>
361.12488341

> <PUBCHEM_MOLECULAR_FORMULA>
C21H19N3OS

> <PUBCHEM_MOLECULAR_WEIGHT>
361.5

> <PUBCHEM_SMILES>
C1=CC=C(C=C1)C(CCO)NC2=NC3=C(S2)C=C(C=C3)C4=CC=NC=C4

> <PUBCHEM_OPENEYE_CAN_SMILES>
C1=CC=C(C=C1)C(CCO)NC2=NC3=C(S2)C=C(C=C3)C4=CC=NC=C4

> <PUBCHEM_OPENEYE_ISO_SMILES>
C1=CC=C(C=C1)C(CCO)NC2=NC3=C(S2)C=C(C=C3)C4=CC=NC=C4

> <PUBCHEM_CACTVS_TPSA>
86.3

> <PUBCHEM_MONOISOTOPIC_WEIGHT>
361.12488341

> <PUBCHEM_TOTAL_CHARGE>
0

> <PUBCHEM_HEAVY_ATOM_COUNT>
26

> <PUBCHEM_ATOM_DEF_STEREO_COUNT>
0

> <PUBCHEM_ATOM_UDEF_STEREO_COUNT>
1

> <PUBCHEM_BOND_DEF_STEREO_COUNT>
0

> <PUBCHEM_BOND_UDEF_STEREO_COUNT>
0

> <PUBCHEM_ISOTOPIC_ATOM_COUNT>
0

> <PUBCHEM_COMPONENT_COUNT>
1

> <PUBCHEM_CACTVS_TAUTO_COUNT>
-1

> <PUBCHEM_COORDINATE_TYPE>
1
5
255

> <PUBCHEM_BONDANNOTATIONS>
1  10  8
1  11  8
11  14  8
11  16  8
12  18  8
13  19  8
14  17  8
15  16  8
15  20  8
17  20  8
18  22  8
19  22  8
21  23  8
21  24  8
23  25  8
24  26  8
4  10  8
4  14  8
5  25  8
5  26  8
6  7  3
8  12  8
8  13  8

$$$$
