49830277
  -OEChem-03202502212D

 39 42  0     0  0  0  0  0  0999 V2000
    4.2690    2.3870    0.0000 O   0  0  0  0  0  0  0  0  0  0  0  0
    7.8133   -2.4177    0.0000 N   0  0  0  0  0  0  0  0  0  0  0  0
    6.0010   -2.6130    0.0000 N   0  0  0  0  0  0  0  0  0  0  0  0
    2.5369    2.3870    0.0000 N   0  0  0  0  0  0  0  0  0  0  0  0
    6.8671   -1.1130    0.0000 C   0  0  0  0  0  0  0  0  0  0  0  0
    7.8133   -0.8082    0.0000 C   0  0  0  0  0  0  0  0  0  0  0  0
    6.8671   -2.1130    0.0000 C   0  0  0  0  0  0  0  0  0  0  0  0
    6.0010   -0.6130    0.0000 C   0  0  0  0  0  0  0  0  0  0  0  0
    5.1350   -1.1130    0.0000 C   0  0  0  0  0  0  0  0  0  0  0  0
    8.3969   -1.6130    0.0000 C   0  0  0  0  0  0  0  0  0  0  0  0
    8.1240    0.1423    0.0000 C   0  0  0  0  0  0  0  0  0  0  0  0
    4.2690   -0.6130    0.0000 C   0  0  0  0  0  0  0  0  0  0  0  0
    5.1350   -2.1130    0.0000 C   0  0  0  0  0  0  0  0  0  0  0  0
    4.2690    0.3870    0.0000 C   0  0  0  0  0  0  0  0  0  0  0  0
    9.1024    0.3485    0.0000 C   0  0  0  0  0  0  0  0  0  0  0  0
    7.4561    0.8866    0.0000 C   0  0  0  0  0  0  0  0  0  0  0  0
    3.4030   -1.1130    0.0000 C   0  0  0  0  0  0  0  0  0  0  0  0
    3.4030    0.8870    0.0000 C   0  0  0  0  0  0  0  0  0  0  0  0
    2.5369   -0.6130    0.0000 C   0  0  0  0  0  0  0  0  0  0  0  0
    2.5369    0.3870    0.0000 C   0  0  0  0  0  0  0  0  0  0  0  0
    9.4131    1.2990    0.0000 C   0  0  0  0  0  0  0  0  0  0  0  0
    7.7668    1.8371    0.0000 C   0  0  0  0  0  0  0  0  0  0  0  0
    8.7453    2.0433    0.0000 C   0  0  0  0  0  0  0  0  0  0  0  0
    3.4030    1.8870    0.0000 C   0  0  0  0  0  0  0  0  0  0  0  0
    6.0010    0.0070    0.0000 H   0  0  0  0  0  0  0  0  0  0  0  0
    9.0169   -1.6130    0.0000 H   0  0  0  0  0  0  0  0  0  0  0  0
    8.0059   -3.0070    0.0000 H   0  0  0  0  0  0  0  0  0  0  0  0
    4.5981   -2.4230    0.0000 H   0  0  0  0  0  0  0  0  0  0  0  0
    4.8059    0.6970    0.0000 H   0  0  0  0  0  0  0  0  0  0  0  0
    9.5165   -0.1130    0.0000 H   0  0  0  0  0  0  0  0  0  0  0  0
    6.8494    0.7587    0.0000 H   0  0  0  0  0  0  0  0  0  0  0  0
    3.4030   -1.7330    0.0000 H   0  0  0  0  0  0  0  0  0  0  0  0
    2.0000   -0.9230    0.0000 H   0  0  0  0  0  0  0  0  0  0  0  0
    2.0000    0.6970    0.0000 H   0  0  0  0  0  0  0  0  0  0  0  0
   10.0198    1.4269    0.0000 H   0  0  0  0  0  0  0  0  0  0  0  0
    7.3527    2.2986    0.0000 H   0  0  0  0  0  0  0  0  0  0  0  0
    8.9379    2.6326    0.0000 H   0  0  0  0  0  0  0  0  0  0  0  0
    2.5369    3.0070    0.0000 H   0  0  0  0  0  0  0  0  0  0  0  0
    2.0000    2.0770    0.0000 H   0  0  0  0  0  0  0  0  0  0  0  0
  1 24  2  0  0  0  0
  2  7  1  0  0  0  0
  2 10  1  0  0  0  0
  2 27  1  0  0  0  0
  3  7  1  0  0  0  0
  3 13  2  0  0  0  0
  4 24  1  0  0  0  0
  4 38  1  0  0  0  0
  4 39  1  0  0  0  0
  5  6  1  0  0  0  0
  5  7  2  0  0  0  0
  5  8  1  0  0  0  0
  6 10  2  0  0  0  0
  6 11  1  0  0  0  0
  8  9  2  0  0  0  0
  8 25  1  0  0  0  0
  9 12  1  0  0  0  0
  9 13  1  0  0  0  0
 10 26  1  0  0  0  0
 11 15  2  0  0  0  0
 11 16  1  0  0  0  0
 12 14  2  0  0  0  0
 12 17  1  0  0  0  0
 13 28  1  0  0  0  0
 14 18  1  0  0  0  0
 14 29  1  0  0  0  0
 15 21  1  0  0  0  0
 15 30  1  0  0  0  0
 16 22  2  0  0  0  0
 16 31  1  0  0  0  0
 17 19  2  0  0  0  0
 17 32  1  0  0  0  0
 18 20  2  0  0  0  0
 18 24  1  0  0  0  0
 19 20  1  0  0  0  0
 19 33  1  0  0  0  0
 20 34  1  0  0  0  0
 21 23  2  0  0  0  0
 21 35  1  0  0  0  0
 22 23  1  0  0  0  0
 22 36  1  0  0  0  0
 23 37  1  0  0  0  0
M  END
> <PUBCHEM_COMPOUND_CID>
49830277

> <PUBCHEM_COMPOUND_CANONICALIZED>
1

> <PUBCHEM_CACTVS_COMPLEXITY>
448

> <PUBCHEM_CACTVS_HBOND_ACCEPTOR>
2

> <PUBCHEM_CACTVS_HBOND_DONOR>
2

> <PUBCHEM_CACTVS_ROTATABLE_BOND>
3

> <PUBCHEM_CACTVS_SUBSKEYS>
AAADccB7IAAAAAAAAAAAAAAAAAAAAWAAAAA8YIAAAAAAAFgB/AAAHgAQAAAADADBmwQ9sN7JkACoAjN3dACCgCm1AKAJ2aEoRNiIKPLAnZGEIQhogALIyacYiMCOgAACAAAAAAAAAAQAAAAAAAAAAAAAAA==

> <PUBCHEM_IUPAC_OPENEYE_NAME>
3-(3-phenyl-1H-pyrrolo[2,3-b]pyridin-5-yl)benzamide

> <PUBCHEM_IUPAC_CAS_NAME>
3-(3-phenyl-1H-pyrrolo[2,3-b]pyridin-5-yl)benzamide

> <PUBCHEM_IUPAC_NAME_MARKUP>
3-(3-phenyl-1<I>H</I>-pyrrolo[2,3-b]pyridin-5-yl)benzamide

> <PUBCHEM_IUPAC_NAME>
3-(3-phenyl-1H-pyrrolo[2,3-b]pyridin-5-yl)benzamide

> <PUBCHEM_IUPAC_SYSTEMATIC_NAME>
3-(3-phenyl-1H-pyrrolo[2,3-b]pyridin-5-yl)benzamide

> <PUBCHEM_IUPAC_TRADITIONAL_NAME>
3-(3-phenyl-1H-pyrrolo[2,3-b]pyridin-5-yl)benzamide

> <PUBCHEM_IUPAC_INCHI>
InChI=1S/C20H15N3O/c21-19(24)15-8-4-7-14(9-15)16-10-17-18(12-23-20(17)22-11-16)13-5-2-1-3-6-13/h1-12H,(H2,21,24)(H,22,23)

> <PUBCHEM_IUPAC_INCHIKEY>
PCQMERRARZKTPW-UHFFFAOYSA-N

> <PUBCHEM_XLOGP3_AA>
3.4

> <PUBCHEM_EXACT_MASS>
313.121512110

> <PUBCHEM_MOLECULAR_FORMULA>
C20H15N3O

> <PUBCHEM_MOLECULAR_WEIGHT>
313.4

> <PUBCHEM_SMILES>
C1=CC=C(C=C1)C2=CNC3=C2C=C(C=N3)C4=CC(=CC=C4)C(=O)N

> <PUBCHEM_OPENEYE_CAN_SMILES>
C1=CC=C(C=C1)C2=CNC3=C2C=C(C=N3)C4=CC(=CC=C4)C(=O)N

> <PUBCHEM_OPENEYE_ISO_SMILES>
C1=CC=C(C=C1)C2=CNC3=C2C=C(C=N3)C4=CC(=CC=C4)C(=O)N

> <PUBCHEM_CACTVS_TPSA>
71.8

> <PUBCHEM_MONOISOTOPIC_WEIGHT>
313.121512110

> <PUBCHEM_TOTAL_CHARGE>
0

> <PUBCHEM_HEAVY_ATOM_COUNT>
24

> <PUBCHEM_ATOM_DEF_STEREO_COUNT>
0

> <PUBCHEM_ATOM_UDEF_STEREO_COUNT>
0

> <PUBCHEM_BOND_DEF_STEREO_COUNT>
0

> <PUBCHEM_BOND_UDEF_STEREO_COUNT>
0

> <PUBCHEM_ISOTOPIC_ATOM_COUNT>
0

> <PUBCHEM_COMPONENT_COUNT>
1

> <PUBCHEM_CACTVS_TAUTO_COUNT>
-1

> <PUBCHEM_COORDINATE_TYPE>
1
5
255

> <PUBCHEM_BONDANNOTATIONS>
11  15  8
11  16  8
12  14  8
12  17  8
14  18  8
15  21  8
16  22  8
17  19  8
18  20  8
19  20  8
2  10  8
2  7  8
21  23  8
22  23  8
3  13  8
3  7  8
5  6  8
5  7  8
5  8  8
6  10  8
8  9  8
9  13  8

$$$$
