465921
  -OEChem-03202500102D

 38 43  0     1  0  0  0  0  0999 V2000
    6.3326   -1.7552    0.0000 O   0  0  0  0  0  0  0  0  0  0  0  0
    6.3326    1.7552    0.0000 O   0  0  0  0  0  0  0  0  0  0  0  0
    2.6067   -1.1671    0.0000 N   0  0  0  0  0  0  0  0  0  0  0  0
    2.6067    1.1671    0.0000 N   0  0  0  0  0  0  0  0  0  0  0  0
    6.6056    0.0000    0.0000 N   0  0  0  0  0  0  0  0  0  0  0  0
    5.0757   -0.5000    0.0000 C   0  0  0  0  0  0  0  0  0  0  0  0
    4.2097   -1.0000    0.0000 C   0  0  0  0  0  0  0  0  0  0  0  0
    4.2097    1.0000    0.0000 C   0  0  0  0  0  0  0  0  0  0  0  0
    5.0757    0.5000    0.0000 C   0  0  0  0  0  0  0  0  0  0  0  0
    3.3437   -0.5000    0.0000 C   0  0  0  0  0  0  0  0  0  0  0  0
    3.3437    0.5000    0.0000 C   0  0  0  0  0  0  0  0  0  0  0  0
    6.0220   -0.8047    0.0000 C   0  0  3  0  0  0  0  0  0  0  0  0
    4.0005   -1.9718    0.0000 C   0  0  0  0  0  0  0  0  0  0  0  0
    4.0005    1.9718    0.0000 C   0  0  0  0  0  0  0  0  0  0  0  0
    3.0118   -2.0749    0.0000 C   0  0  0  0  0  0  0  0  0  0  0  0
    3.0118    2.0749    0.0000 C   0  0  0  0  0  0  0  0  0  0  0  0
    6.0220    0.8047    0.0000 C   0  0  0  0  0  0  0  0  0  0  0  0
    4.6213   -2.8006    0.0000 C   0  0  0  0  0  0  0  0  0  0  0  0
    4.6213    2.8006    0.0000 C   0  0  0  0  0  0  0  0  0  0  0  0
    2.5753   -3.0138    0.0000 C   0  0  0  0  0  0  0  0  0  0  0  0
    2.5753    3.0138    0.0000 C   0  0  0  0  0  0  0  0  0  0  0  0
    4.2066   -3.7494    0.0000 C   0  0  0  0  0  0  0  0  0  0  0  0
    4.2066    3.7494    0.0000 C   0  0  0  0  0  0  0  0  0  0  0  0
    3.1767   -3.8567    0.0000 C   0  0  0  0  0  0  0  0  0  0  0  0
    3.1767    3.8567    0.0000 C   0  0  0  0  0  0  0  0  0  0  0  0
    5.5845   -1.2441    0.0000 H   0  0  0  0  0  0  0  0  0  0  0  0
    2.0000   -1.0392    0.0000 H   0  0  0  0  0  0  0  0  0  0  0  0
    2.0000    1.0392    0.0000 H   0  0  0  0  0  0  0  0  0  0  0  0
    7.2256    0.0000    0.0000 H   0  0  0  0  0  0  0  0  0  0  0  0
    5.2371   -2.7292    0.0000 H   0  0  0  0  0  0  0  0  0  0  0  0
    5.2371    2.7292    0.0000 H   0  0  0  0  0  0  0  0  0  0  0  0
    1.9579   -3.0710    0.0000 H   0  0  0  0  0  0  0  0  0  0  0  0
    1.9579    3.0710    0.0000 H   0  0  0  0  0  0  0  0  0  0  0  0
    6.9393   -1.8831    0.0000 H   0  0  0  0  0  0  0  0  0  0  0  0
    4.5725   -4.2499    0.0000 H   0  0  0  0  0  0  0  0  0  0  0  0
    4.5725    4.2499    0.0000 H   0  0  0  0  0  0  0  0  0  0  0  0
    2.9219   -4.4219    0.0000 H   0  0  0  0  0  0  0  0  0  0  0  0
    2.9219    4.4219    0.0000 H   0  0  0  0  0  0  0  0  0  0  0  0
  1 12  1  0  0  0  0
  1 34  1  0  0  0  0
  2 17  2  0  0  0  0
  3 10  1  0  0  0  0
  3 15  1  0  0  0  0
  3 27  1  0  0  0  0
  4 11  1  0  0  0  0
  4 16  1  0  0  0  0
  4 28  1  0  0  0  0
  5 12  1  0  0  0  0
  5 17  1  0  0  0  0
  5 29  1  0  0  0  0
  6  7  2  0  0  0  0
  6  9  1  0  0  0  0
  6 12  1  0  0  0  0
  7 10  1  0  0  0  0
  7 13  1  0  0  0  0
  8  9  2  0  0  0  0
  8 11  1  0  0  0  0
  8 14  1  0  0  0  0
  9 17  1  0  0  0  0
 10 11  2  0  0  0  0
 12 26  1  0  0  0  0
 13 15  1  0  0  0  0
 13 18  2  0  0  0  0
 14 16  1  0  0  0  0
 14 19  2  0  0  0  0
 15 20  2  0  0  0  0
 16 21  2  0  0  0  0
 18 22  1  0  0  0  0
 18 30  1  0  0  0  0
 19 23  1  0  0  0  0
 19 31  1  0  0  0  0
 20 24  1  0  0  0  0
 20 32  1  0  0  0  0
 21 25  1  0  0  0  0
 21 33  1  0  0  0  0
 22 24  2  0  0  0  0
 22 35  1  0  0  0  0
 23 25  2  0  0  0  0
 23 36  1  0  0  0  0
 24 37  1  0  0  0  0
 25 38  1  0  0  0  0
M  END
> <PUBCHEM_COMPOUND_CID>
465921

> <PUBCHEM_COMPOUND_CANONICALIZED>
1

> <PUBCHEM_CACTVS_COMPLEXITY>
583

> <PUBCHEM_CACTVS_HBOND_ACCEPTOR>
2

> <PUBCHEM_CACTVS_HBOND_DONOR>
4

> <PUBCHEM_CACTVS_ROTATABLE_BOND>
0

> <PUBCHEM_CACTVS_SUBSKEYS>
AAADccB7MAAAAAAAAAAAAAAAAAAAAWLFgAAwYMAAAAAAAFgB/gAAHgAQCAAADAjhngYwwPLJkgCoAyVyVACCgCQlEiAImaE4fNkIdvLAlZGUcQhk1gHI2Qe+2fOeyAACQAASACCQAASAACQAQAAAAAAAAA==

> <PUBCHEM_IUPAC_OPENEYE_NAME>
14-hydroxy-3,13,23-triazahexacyclo[14.7.0.02,10.04,9.011,15.017,22]tricosa-1,4,6,8,10,15,17,19,21-nonaen-12-one

> <PUBCHEM_IUPAC_CAS_NAME>
14-hydroxy-3,13,23-triazahexacyclo[14.7.0.02,10.04,9.011,15.017,22]tricosa-1,4,6,8,10,15,17,19,21-nonaen-12-one

> <PUBCHEM_IUPAC_NAME_MARKUP>
14-hydroxy-3,13,23-triazahexacyclo[14.7.0.0<SUP>2,10</SUP>.0<SUP>4,9</SUP>.0<SUP>11,15</SUP>.0<SUP>17,22</SUP>]tricosa-1,4,6,8,10,15,17,19,21-nonaen-12-one

> <PUBCHEM_IUPAC_NAME>
14-hydroxy-3,13,23-triazahexacyclo[14.7.0.02,10.04,9.011,15.017,22]tricosa-1,4,6,8,10,15,17,19,21-nonaen-12-one

> <PUBCHEM_IUPAC_SYSTEMATIC_NAME>
14-oxidanyl-3,13,23-triazahexacyclo[14.7.0.02,10.04,9.011,15.017,22]tricosa-1,4,6,8,10,15,17,19,21-nonaen-12-one

> <PUBCHEM_IUPAC_TRADITIONAL_NAME>
14-hydroxy-3,13,23-triazahexacyclo[14.7.0.02,10.04,9.011,15.017,22]tricosa-1,4,6,8,10,15,17,19,21-nonaen-12-one

> <PUBCHEM_IUPAC_INCHI>
InChI=1S/C20H13N3O2/c24-19-15-13-9-5-1-3-7-11(9)21-17(13)18-14(16(15)20(25)23-19)10-6-2-4-8-12(10)22-18/h1-8,19,21-22,24H,(H,23,25)

> <PUBCHEM_IUPAC_INCHIKEY>
PLHXPQPLYRWYLK-UHFFFAOYSA-N

> <PUBCHEM_XLOGP3_AA>
3.1

> <PUBCHEM_EXACT_MASS>
327.100776666

> <PUBCHEM_MOLECULAR_FORMULA>
C20H13N3O2

> <PUBCHEM_MOLECULAR_WEIGHT>
327.3

> <PUBCHEM_SMILES>
C1=CC=C2C(=C1)C3=C4C(NC(=O)C4=C5C6=CC=CC=C6NC5=C3N2)O

> <PUBCHEM_OPENEYE_CAN_SMILES>
C1=CC=C2C(=C1)C3=C4C(NC(=O)C4=C5C6=CC=CC=C6NC5=C3N2)O

> <PUBCHEM_OPENEYE_ISO_SMILES>
C1=CC=C2C(=C1)C3=C4C(NC(=O)C4=C5C6=CC=CC=C6NC5=C3N2)O

> <PUBCHEM_CACTVS_TPSA>
80.9

> <PUBCHEM_MONOISOTOPIC_WEIGHT>
327.100776666

> <PUBCHEM_TOTAL_CHARGE>
0

> <PUBCHEM_HEAVY_ATOM_COUNT>
25

> <PUBCHEM_ATOM_DEF_STEREO_COUNT>
0

> <PUBCHEM_ATOM_UDEF_STEREO_COUNT>
1

> <PUBCHEM_BOND_DEF_STEREO_COUNT>
0

> <PUBCHEM_BOND_UDEF_STEREO_COUNT>
0

> <PUBCHEM_ISOTOPIC_ATOM_COUNT>
0

> <PUBCHEM_COMPONENT_COUNT>
1

> <PUBCHEM_CACTVS_TAUTO_COUNT>
-1

> <PUBCHEM_COORDINATE_TYPE>
1
5
255

> <PUBCHEM_BONDANNOTATIONS>
12  1  3
10  11  8
13  15  8
13  18  8
14  16  8
14  19  8
15  20  8
16  21  8
18  22  8
19  23  8
20  24  8
21  25  8
22  24  8
23  25  8
3  10  8
3  15  8
4  11  8
4  16  8
6  7  8
6  9  8
7  10  8
7  13  8
8  11  8
8  14  8
8  9  8

$$$$
