24905328
  -OEChem-03192523572D

 36 38  0     0  0  0  0  0  0999 V2000
    5.9209    3.9656    0.0000 F   0  0  0  0  0  0  0  0  0  0  0  0
    7.2566    2.4770    0.0000 O   0  0  0  0  0  0  0  0  0  0  0  0
    4.6783   -1.4459    0.0000 N   0  0  0  0  0  0  0  0  0  0  0  0
    5.2619   -0.6412    0.0000 N   0  0  0  0  0  0  0  0  0  0  0  0
    2.8660   -1.6412    0.0000 N   0  0  0  0  0  0  0  0  0  0  0  0
    2.0000   -0.1412    0.0000 N   0  0  0  0  0  0  0  0  0  0  0  0
    2.8660    1.3588    0.0000 N   0  0  0  0  0  0  0  0  0  0  0  0
    8.2351   -3.9656    0.0000 N   0  0  0  0  0  0  0  0  0  0  0  0
    4.9889   -2.3965    0.0000 C   0  0  0  0  0  0  0  0  0  0  0  0
    3.7320   -0.1412    0.0000 C   0  0  0  0  0  0  0  0  0  0  0  0
    3.7320   -1.1412    0.0000 C   0  0  0  0  0  0  0  0  0  0  0  0
    4.6783    0.1635    0.0000 C   0  0  0  0  0  0  0  0  0  0  0  0
    5.9674   -2.6027    0.0000 C   0  0  0  0  0  0  0  0  0  0  0  0
    4.9889    1.1141    0.0000 C   0  0  0  0  0  0  0  0  0  0  0  0
    2.8660    0.3588    0.0000 C   0  0  0  0  0  0  0  0  0  0  0  0
    6.2781   -3.5532    0.0000 C   0  0  0  0  0  0  0  0  0  0  0  0
    5.9674    1.3203    0.0000 C   0  0  0  0  0  0  0  0  0  0  0  0
    4.3211    1.8584    0.0000 C   0  0  0  0  0  0  0  0  0  0  0  0
    2.0000   -1.1412    0.0000 C   0  0  0  0  0  0  0  0  0  0  0  0
    6.2781    2.2708    0.0000 C   0  0  0  0  0  0  0  0  0  0  0  0
    4.6318    2.8089    0.0000 C   0  0  0  0  0  0  0  0  0  0  0  0
    5.6103    3.0151    0.0000 C   0  0  0  0  0  0  0  0  0  0  0  0
    7.2566   -3.7594    0.0000 C   0  0  0  0  0  0  0  0  0  0  0  0
    4.3751   -2.4838    0.0000 H   0  0  0  0  0  0  0  0  0  0  0  0
    4.9684   -3.0161    0.0000 H   0  0  0  0  0  0  0  0  0  0  0  0
    6.5812   -2.5153    0.0000 H   0  0  0  0  0  0  0  0  0  0  0  0
    5.9880   -1.9830    0.0000 H   0  0  0  0  0  0  0  0  0  0  0  0
    5.6643   -3.6405    0.0000 H   0  0  0  0  0  0  0  0  0  0  0  0
    6.2575   -4.1728    0.0000 H   0  0  0  0  0  0  0  0  0  0  0  0
    6.3815    0.8588    0.0000 H   0  0  0  0  0  0  0  0  0  0  0  0
    3.7144    1.7305    0.0000 H   0  0  0  0  0  0  0  0  0  0  0  0
    1.4631   -1.4512    0.0000 H   0  0  0  0  0  0  0  0  0  0  0  0
    4.2177    3.2704    0.0000 H   0  0  0  0  0  0  0  0  0  0  0  0
    2.3291    1.6688    0.0000 H   0  0  0  0  0  0  0  0  0  0  0  0
    3.4030    1.6688    0.0000 H   0  0  0  0  0  0  0  0  0  0  0  0
    7.6707    2.0156    0.0000 H   0  0  0  0  0  0  0  0  0  0  0  0
  1 22  1  0  0  0  0
  2 20  1  0  0  0  0
  2 36  1  0  0  0  0
  3  4  1  0  0  0  0
  3  9  1  0  0  0  0
  3 11  1  0  0  0  0
  4 12  2  0  0  0  0
  5 11  2  0  0  0  0
  5 19  1  0  0  0  0
  6 15  1  0  0  0  0
  6 19  2  0  0  0  0
  7 15  1  0  0  0  0
  7 34  1  0  0  0  0
  7 35  1  0  0  0  0
  8 23  3  0  0  0  0
  9 13  1  0  0  0  0
  9 24  1  0  0  0  0
  9 25  1  0  0  0  0
 10 11  1  0  0  0  0
 10 12  1  0  0  0  0
 10 15  2  0  0  0  0
 12 14  1  0  0  0  0
 13 16  1  0  0  0  0
 13 26  1  0  0  0  0
 13 27  1  0  0  0  0
 14 17  2  0  0  0  0
 14 18  1  0  0  0  0
 16 23  1  0  0  0  0
 16 28  1  0  0  0  0
 16 29  1  0  0  0  0
 17 20  1  0  0  0  0
 17 30  1  0  0  0  0
 18 21  2  0  0  0  0
 18 31  1  0  0  0  0
 19 32  1  0  0  0  0
 20 22  2  0  0  0  0
 21 22  1  0  0  0  0
 21 33  1  0  0  0  0
M  END
> <PUBCHEM_COMPOUND_CID>
24905328

> <PUBCHEM_COMPOUND_CANONICALIZED>
1

> <PUBCHEM_CACTVS_COMPLEXITY>
456

> <PUBCHEM_CACTVS_HBOND_ACCEPTOR>
7

> <PUBCHEM_CACTVS_HBOND_DONOR>
2

> <PUBCHEM_CACTVS_ROTATABLE_BOND>
4

> <PUBCHEM_CACTVS_SUBSKEYS>
AAADccBzoQAAAAAAAAAAAAAAAAAAAWAAAAA8QAAAAAAAAFgB/AAAHwAYCAAADAzBnww1tt5IEgCyByZjZACShCsxoKAd2CAuTJiIrqLC2dOE9AhsyBPI2C+wwPAOAAABAAAAAAAAAAIAAAAAAAAAAAAAAA==

> <PUBCHEM_IUPAC_OPENEYE_NAME>
4-[4-amino-3-(4-fluoro-3-hydroxy-phenyl)pyrazolo[3,4-d]pyrimidin-1-yl]butanenitrile

> <PUBCHEM_IUPAC_CAS_NAME>
4-[4-amino-3-(4-fluoro-3-hydroxyphenyl)-1-pyrazolo[3,4-d]pyrimidinyl]butanenitrile

> <PUBCHEM_IUPAC_NAME_MARKUP>
4-[4-amino-3-(4-fluoro-3-hydroxyphenyl)pyrazolo[3,4-d]pyrimidin-1-yl]butanenitrile

> <PUBCHEM_IUPAC_NAME>
4-[4-amino-3-(4-fluoro-3-hydroxyphenyl)pyrazolo[3,4-d]pyrimidin-1-yl]butanenitrile

> <PUBCHEM_IUPAC_SYSTEMATIC_NAME>
4-[4-azanyl-3-(4-fluoranyl-3-oxidanyl-phenyl)pyrazolo[3,4-d]pyrimidin-1-yl]butanenitrile

> <PUBCHEM_IUPAC_TRADITIONAL_NAME>
4-[4-amino-3-(4-fluoro-3-hydroxy-phenyl)pyrazolo[3,4-d]pyrimidin-1-yl]butyronitrile

> <PUBCHEM_IUPAC_INCHI>
InChI=1S/C15H13FN6O/c16-10-4-3-9(7-11(10)23)13-12-14(18)19-8-20-15(12)22(21-13)6-2-1-5-17/h3-4,7-8,23H,1-2,6H2,(H2,18,19,20)

> <PUBCHEM_IUPAC_INCHIKEY>
XVTLRUAQTJKQLQ-UHFFFAOYSA-N

> <PUBCHEM_XLOGP3_AA>
1.2

> <PUBCHEM_EXACT_MASS>
312.11348722

> <PUBCHEM_MOLECULAR_FORMULA>
C15H13FN6O

> <PUBCHEM_MOLECULAR_WEIGHT>
312.30

> <PUBCHEM_SMILES>
C1=CC(=C(C=C1C2=NN(C3=NC=NC(=C23)N)CCCC#N)O)F

> <PUBCHEM_OPENEYE_CAN_SMILES>
C1=CC(=C(C=C1C2=NN(C3=NC=NC(=C23)N)CCCC#N)O)F

> <PUBCHEM_OPENEYE_ISO_SMILES>
C1=CC(=C(C=C1C2=NN(C3=NC=NC(=C23)N)CCCC#N)O)F

> <PUBCHEM_CACTVS_TPSA>
114

> <PUBCHEM_MONOISOTOPIC_WEIGHT>
312.11348722

> <PUBCHEM_TOTAL_CHARGE>
0

> <PUBCHEM_HEAVY_ATOM_COUNT>
23

> <PUBCHEM_ATOM_DEF_STEREO_COUNT>
0

> <PUBCHEM_ATOM_UDEF_STEREO_COUNT>
0

> <PUBCHEM_BOND_DEF_STEREO_COUNT>
0

> <PUBCHEM_BOND_UDEF_STEREO_COUNT>
0

> <PUBCHEM_ISOTOPIC_ATOM_COUNT>
0

> <PUBCHEM_COMPONENT_COUNT>
1

> <PUBCHEM_CACTVS_TAUTO_COUNT>
-1

> <PUBCHEM_COORDINATE_TYPE>
1
5
255

> <PUBCHEM_BONDANNOTATIONS>
10  11  8
10  12  8
10  15  8
14  17  8
14  18  8
17  20  8
18  21  8
20  22  8
21  22  8
3  11  8
3  4  8
4  12  8
5  11  8
5  19  8
6  15  8
6  19  8

$$$$
