17163635
  -OEChem-03202501402D

 29 31  0     0  0  0  0  0  0999 V2000
    2.0000    1.9470    0.0000 Cl  0  0  0  0  0  0  0  0  0  0  0  0
    5.4641   -1.0530    0.0000 O   0  0  0  0  0  0  0  0  0  0  0  0
    6.3301    0.4470    0.0000 N   0  0  0  0  0  0  0  0  0  0  0  0
    9.8744   -1.3577    0.0000 N   0  0  0  0  0  0  0  0  0  0  0  0
   10.4580   -0.5530    0.0000 N   0  0  0  0  0  0  0  0  0  0  0  0
    8.9282   -0.0530    0.0000 C   0  0  0  0  0  0  0  0  0  0  0  0
    8.9282   -1.0530    0.0000 C   0  0  0  0  0  0  0  0  0  0  0  0
    7.1962   -0.0530    0.0000 C   0  0  0  0  0  0  0  0  0  0  0  0
    8.0622    0.4470    0.0000 C   0  0  0  0  0  0  0  0  0  0  0  0
    8.0622   -1.5530    0.0000 C   0  0  0  0  0  0  0  0  0  0  0  0
    7.1962   -1.0530    0.0000 C   0  0  0  0  0  0  0  0  0  0  0  0
    9.8744    0.2518    0.0000 C   0  0  0  0  0  0  0  0  0  0  0  0
    4.5981    0.4470    0.0000 C   0  0  0  0  0  0  0  0  0  0  0  0
    5.4641   -0.0530    0.0000 C   0  0  0  0  0  0  0  0  0  0  0  0
    3.7320   -0.0530    0.0000 C   0  0  0  0  0  0  0  0  0  0  0  0
    4.5981    1.4470    0.0000 C   0  0  0  0  0  0  0  0  0  0  0  0
    2.8660    0.4470    0.0000 C   0  0  0  0  0  0  0  0  0  0  0  0
    3.7320    1.9470    0.0000 C   0  0  0  0  0  0  0  0  0  0  0  0
    2.8660    1.4470    0.0000 C   0  0  0  0  0  0  0  0  0  0  0  0
    8.0622    1.0670    0.0000 H   0  0  0  0  0  0  0  0  0  0  0  0
    8.0622   -2.1730    0.0000 H   0  0  0  0  0  0  0  0  0  0  0  0
    6.6592   -1.3630    0.0000 H   0  0  0  0  0  0  0  0  0  0  0  0
    6.3301    1.0670    0.0000 H   0  0  0  0  0  0  0  0  0  0  0  0
   10.0670    0.8411    0.0000 H   0  0  0  0  0  0  0  0  0  0  0  0
   10.0670   -1.9470    0.0000 H   0  0  0  0  0  0  0  0  0  0  0  0
    3.7320   -0.6730    0.0000 H   0  0  0  0  0  0  0  0  0  0  0  0
    5.1350    1.7570    0.0000 H   0  0  0  0  0  0  0  0  0  0  0  0
    2.3291    0.1370    0.0000 H   0  0  0  0  0  0  0  0  0  0  0  0
    3.7320    2.5670    0.0000 H   0  0  0  0  0  0  0  0  0  0  0  0
  1 19  1  0  0  0  0
  2 14  2  0  0  0  0
  3  8  1  0  0  0  0
  3 14  1  0  0  0  0
  3 23  1  0  0  0  0
  4  5  1  0  0  0  0
  4  7  1  0  0  0  0
  4 25  1  0  0  0  0
  5 12  2  0  0  0  0
  6  7  2  0  0  0  0
  6  9  1  0  0  0  0
  6 12  1  0  0  0  0
  7 10  1  0  0  0  0
  8  9  2  0  0  0  0
  8 11  1  0  0  0  0
  9 20  1  0  0  0  0
 10 11  2  0  0  0  0
 10 21  1  0  0  0  0
 11 22  1  0  0  0  0
 12 24  1  0  0  0  0
 13 14  1  0  0  0  0
 13 15  2  0  0  0  0
 13 16  1  0  0  0  0
 15 17  1  0  0  0  0
 15 26  1  0  0  0  0
 16 18  2  0  0  0  0
 16 27  1  0  0  0  0
 17 19  2  0  0  0  0
 17 28  1  0  0  0  0
 18 19  1  0  0  0  0
 18 29  1  0  0  0  0
M  END
> <PUBCHEM_COMPOUND_CID>
17163635

> <PUBCHEM_COMPOUND_CANONICALIZED>
1

> <PUBCHEM_CACTVS_COMPLEXITY>
331

> <PUBCHEM_CACTVS_HBOND_ACCEPTOR>
2

> <PUBCHEM_CACTVS_HBOND_DONOR>
2

> <PUBCHEM_CACTVS_ROTATABLE_BOND>
2

> <PUBCHEM_CACTVS_SUBSKEYS>
AAADccBzIAAEAAAAAAAAAAAAAAAAAWAAAAAwYAAAAAAAAFgB9AAAHgIYAAAADArBniQ8wPLjAACqAzV3UACSBAAlhwAYuSEwZtgIILLB19GEpQhgnADIyYcYiACOBACAQAACAAAIAQCAAAQAAAAAAAAAAA==

> <PUBCHEM_IUPAC_OPENEYE_NAME>
4-chloro-N-(1H-indazol-5-yl)benzamide

> <PUBCHEM_IUPAC_CAS_NAME>
4-chloro-N-(1H-indazol-5-yl)benzamide

> <PUBCHEM_IUPAC_NAME_MARKUP>
4-chloro-<I>N</I>-(1<I>H</I>-indazol-5-yl)benzamide

> <PUBCHEM_IUPAC_NAME>
4-chloro-N-(1H-indazol-5-yl)benzamide

> <PUBCHEM_IUPAC_SYSTEMATIC_NAME>
4-chloranyl-N-(1H-indazol-5-yl)benzamide

> <PUBCHEM_IUPAC_TRADITIONAL_NAME>
4-chloro-N-(1H-indazol-5-yl)benzamide

> <PUBCHEM_IUPAC_INCHI>
InChI=1S/C14H10ClN3O/c15-11-3-1-9(2-4-11)14(19)17-12-5-6-13-10(7-12)8-16-18-13/h1-8H,(H,16,18)(H,17,19)

> <PUBCHEM_IUPAC_INCHIKEY>
JGKVEXCUPFIDIE-UHFFFAOYSA-N

> <PUBCHEM_XLOGP3>
3.7

> <PUBCHEM_EXACT_MASS>
271.0512396

> <PUBCHEM_MOLECULAR_FORMULA>
C14H10ClN3O

> <PUBCHEM_MOLECULAR_WEIGHT>
271.70

> <PUBCHEM_SMILES>
C1=CC(=CC=C1C(=O)NC2=CC3=C(C=C2)NN=C3)Cl

> <PUBCHEM_OPENEYE_CAN_SMILES>
C1=CC(=CC=C1C(=O)NC2=CC3=C(C=C2)NN=C3)Cl

> <PUBCHEM_OPENEYE_ISO_SMILES>
C1=CC(=CC=C1C(=O)NC2=CC3=C(C=C2)NN=C3)Cl

> <PUBCHEM_CACTVS_TPSA>
57.8

> <PUBCHEM_MONOISOTOPIC_WEIGHT>
271.0512396

> <PUBCHEM_TOTAL_CHARGE>
0

> <PUBCHEM_HEAVY_ATOM_COUNT>
19

> <PUBCHEM_ATOM_DEF_STEREO_COUNT>
0

> <PUBCHEM_ATOM_UDEF_STEREO_COUNT>
0

> <PUBCHEM_BOND_DEF_STEREO_COUNT>
0

> <PUBCHEM_BOND_UDEF_STEREO_COUNT>
0

> <PUBCHEM_ISOTOPIC_ATOM_COUNT>
0

> <PUBCHEM_COMPONENT_COUNT>
1

> <PUBCHEM_CACTVS_TAUTO_COUNT>
-1

> <PUBCHEM_COORDINATE_TYPE>
1
5
255

> <PUBCHEM_BONDANNOTATIONS>
10  11  8
13  15  8
13  16  8
15  17  8
16  18  8
17  19  8
18  19  8
4  5  8
4  7  8
5  12  8
6  12  8
6  7  8
6  9  8
7  10  8
8  11  8
8  9  8

$$$$
