49830930
  -OEChem-03202502062D

 36 38  0     0  0  0  0  0  0999 V2000
    4.5981    1.1627    0.0000 F   0  0  0  0  0  0  0  0  0  0  0  0
    2.8660    2.1627    0.0000 F   0  0  0  0  0  0  0  0  0  0  0  0
    9.2334   -0.1202    0.0000 O   0  0  0  0  0  0  0  0  0  0  0  0
    7.5870    0.4179    0.0000 N   0  0  0  0  0  0  0  0  0  0  0  0
    7.2764   -2.1421    0.0000 N   0  0  0  0  0  0  0  0  0  0  0  0
    7.8600   -1.3373    0.0000 N   0  0  0  0  0  0  0  0  0  0  0  0
    5.4641   -2.3373    0.0000 N   0  0  0  0  0  0  0  0  0  0  0  0
    4.5981   -1.8373    0.0000 N   0  0  0  0  0  0  0  0  0  0  0  0
    6.3301   -0.8373    0.0000 C   0  0  0  0  0  0  0  0  0  0  0  0
    7.2764   -0.5326    0.0000 C   0  0  0  0  0  0  0  0  0  0  0  0
    6.3301   -1.8373    0.0000 C   0  0  0  0  0  0  0  0  0  0  0  0
    8.8762    1.5747    0.0000 C   0  0  0  0  0  0  0  0  0  0  0  0
    5.4641   -0.3373    0.0000 C   0  0  0  0  0  0  0  0  0  0  0  0
    4.5981   -0.8373    0.0000 C   0  0  0  0  0  0  0  0  0  0  0  0
    9.8547    1.7809    0.0000 C   0  0  0  0  0  0  0  0  0  0  0  0
    8.5655    0.6241    0.0000 C   0  0  0  0  0  0  0  0  0  0  0  0
    3.7320   -0.3373    0.0000 C   0  0  0  0  0  0  0  0  0  0  0  0
   10.1653    2.7314    0.0000 C   0  0  0  0  0  0  0  0  0  0  0  0
    3.7320    0.6627    0.0000 C   0  0  0  0  0  0  0  0  0  0  0  0
    2.8660   -0.8373    0.0000 C   0  0  0  0  0  0  0  0  0  0  0  0
    2.8660    1.1627    0.0000 C   0  0  0  0  0  0  0  0  0  0  0  0
    2.0000   -0.3373    0.0000 C   0  0  0  0  0  0  0  0  0  0  0  0
    2.0000    0.6627    0.0000 C   0  0  0  0  0  0  0  0  0  0  0  0
    8.8556    2.1943    0.0000 H   0  0  0  0  0  0  0  0  0  0  0  0
    8.2624    1.6620    0.0000 H   0  0  0  0  0  0  0  0  0  0  0  0
    5.4641    0.2827    0.0000 H   0  0  0  0  0  0  0  0  0  0  0  0
    9.8752    1.1612    0.0000 H   0  0  0  0  0  0  0  0  0  0  0  0
   10.4685    1.6935    0.0000 H   0  0  0  0  0  0  0  0  0  0  0  0
    7.1730    0.8794    0.0000 H   0  0  0  0  0  0  0  0  0  0  0  0
    7.4690   -2.7314    0.0000 H   0  0  0  0  0  0  0  0  0  0  0  0
   10.7547    2.5388    0.0000 H   0  0  0  0  0  0  0  0  0  0  0  0
   10.3580    3.3207    0.0000 H   0  0  0  0  0  0  0  0  0  0  0  0
    9.5760    2.9240    0.0000 H   0  0  0  0  0  0  0  0  0  0  0  0
    2.8660   -1.4573    0.0000 H   0  0  0  0  0  0  0  0  0  0  0  0
    1.4631   -0.6473    0.0000 H   0  0  0  0  0  0  0  0  0  0  0  0
    1.4631    0.9727    0.0000 H   0  0  0  0  0  0  0  0  0  0  0  0
  1 19  1  0  0  0  0
  2 21  1  0  0  0  0
  3 16  2  0  0  0  0
  4 10  1  0  0  0  0
  4 16  1  0  0  0  0
  4 29  1  0  0  0  0
  5  6  1  0  0  0  0
  5 11  1  0  0  0  0
  5 30  1  0  0  0  0
  6 10  2  0  0  0  0
  7  8  1  0  0  0  0
  7 11  2  0  0  0  0
  8 14  2  0  0  0  0
  9 10  1  0  0  0  0
  9 11  1  0  0  0  0
  9 13  2  0  0  0  0
 12 15  1  0  0  0  0
 12 16  1  0  0  0  0
 12 24  1  0  0  0  0
 12 25  1  0  0  0  0
 13 14  1  0  0  0  0
 13 26  1  0  0  0  0
 14 17  1  0  0  0  0
 15 18  1  0  0  0  0
 15 27  1  0  0  0  0
 15 28  1  0  0  0  0
 17 19  2  0  0  0  0
 17 20  1  0  0  0  0
 18 31  1  0  0  0  0
 18 32  1  0  0  0  0
 18 33  1  0  0  0  0
 19 21  1  0  0  0  0
 20 22  2  0  0  0  0
 20 34  1  0  0  0  0
 21 23  2  0  0  0  0
 22 23  1  0  0  0  0
 22 35  1  0  0  0  0
 23 36  1  0  0  0  0
M  END
> <PUBCHEM_COMPOUND_CID>
49830930

> <PUBCHEM_COMPOUND_CANONICALIZED>
1

> <PUBCHEM_CACTVS_COMPLEXITY>
427

> <PUBCHEM_CACTVS_HBOND_ACCEPTOR>
6

> <PUBCHEM_CACTVS_HBOND_DONOR>
2

> <PUBCHEM_CACTVS_ROTATABLE_BOND>
4

> <PUBCHEM_CACTVS_SUBSKEYS>
AAADccBzoYAAAAAAAAAAAAAAAAAAAWAAAAA8QAAAAAAAAFgB/AAAHwAYAAAADAiBnwgzsN7jAACqAydycACSBAKhAgAduSEwZJiIILLA2dGEpAhwnQLIyAcQgMAOAAAAAAAAAAAAAAAAAAAAAAAAAAAAAA==

> <PUBCHEM_IUPAC_OPENEYE_NAME>
N-[5-(2,3-difluorophenyl)-1H-pyrazolo[3,4-c]pyridazin-3-yl]butanamide

> <PUBCHEM_IUPAC_CAS_NAME>
N-[5-(2,3-difluorophenyl)-1H-pyrazolo[3,4-c]pyridazin-3-yl]butanamide

> <PUBCHEM_IUPAC_NAME_MARKUP>
<I>N</I>-[5-(2,3-difluorophenyl)-1<I>H</I>-pyrazolo[3,4-c]pyridazin-3-yl]butanamide

> <PUBCHEM_IUPAC_NAME>
N-[5-(2,3-difluorophenyl)-1H-pyrazolo[3,4-c]pyridazin-3-yl]butanamide

> <PUBCHEM_IUPAC_SYSTEMATIC_NAME>
N-[5-[2,3-bis(fluoranyl)phenyl]-1H-pyrazolo[3,4-c]pyridazin-3-yl]butanamide

> <PUBCHEM_IUPAC_TRADITIONAL_NAME>
N-[5-(2,3-difluorophenyl)-1H-pyrazolo[3,4-c]pyridazin-3-yl]butyramide

> <PUBCHEM_IUPAC_INCHI>
InChI=1S/C15H13F2N5O/c1-2-4-12(23)18-14-9-7-11(19-21-15(9)22-20-14)8-5-3-6-10(16)13(8)17/h3,5-7H,2,4H2,1H3,(H2,18,20,21,22,23)

> <PUBCHEM_IUPAC_INCHIKEY>
BQWACEUCYSZDBQ-UHFFFAOYSA-N

> <PUBCHEM_XLOGP3_AA>
2

> <PUBCHEM_EXACT_MASS>
317.10881638

> <PUBCHEM_MOLECULAR_FORMULA>
C15H13F2N5O

> <PUBCHEM_MOLECULAR_WEIGHT>
317.29

> <PUBCHEM_SMILES>
CCCC(=O)NC1=NNC2=NN=C(C=C21)C3=C(C(=CC=C3)F)F

> <PUBCHEM_OPENEYE_CAN_SMILES>
CCCC(=O)NC1=NNC2=NN=C(C=C21)C3=C(C(=CC=C3)F)F

> <PUBCHEM_OPENEYE_ISO_SMILES>
CCCC(=O)NC1=NNC2=NN=C(C=C21)C3=C(C(=CC=C3)F)F

> <PUBCHEM_CACTVS_TPSA>
83.6

> <PUBCHEM_MONOISOTOPIC_WEIGHT>
317.10881638

> <PUBCHEM_TOTAL_CHARGE>
0

> <PUBCHEM_HEAVY_ATOM_COUNT>
23

> <PUBCHEM_ATOM_DEF_STEREO_COUNT>
0

> <PUBCHEM_ATOM_UDEF_STEREO_COUNT>
0

> <PUBCHEM_BOND_DEF_STEREO_COUNT>
0

> <PUBCHEM_BOND_UDEF_STEREO_COUNT>
0

> <PUBCHEM_ISOTOPIC_ATOM_COUNT>
0

> <PUBCHEM_COMPONENT_COUNT>
1

> <PUBCHEM_CACTVS_TAUTO_COUNT>
-1

> <PUBCHEM_COORDINATE_TYPE>
1
5
255

> <PUBCHEM_BONDANNOTATIONS>
13  14  8
17  19  8
17  20  8
19  21  8
20  22  8
21  23  8
22  23  8
5  11  8
5  6  8
6  10  8
7  11  8
7  8  8
8  14  8
9  10  8
9  11  8
9  13  8

$$$$
