9819053
  -OEChem-03192523232D

 40 43  0     0  0  0  0  0  0999 V2000
   10.6648   -1.0182    0.0000 F   0  0  0  0  0  0  0  0  0  0  0  0
    4.2690    0.9819    0.0000 O   0  0  0  0  0  0  0  0  0  0  0  0
    6.0812   -1.8229    0.0000 N   0  0  0  0  0  0  0  0  0  0  0  0
    4.2690   -2.0182    0.0000 N   0  0  0  0  0  0  0  0  0  0  0  0
    2.5369   -2.0182    0.0000 N   0  0  0  0  0  0  0  0  0  0  0  0
    7.0132    2.6382    0.0000 N   0  0  0  0  0  0  0  0  0  0  0  0
    6.0812   -0.2134    0.0000 C   0  0  0  0  0  0  0  0  0  0  0  0
    5.1350   -0.5181    0.0000 C   0  0  0  0  0  0  0  0  0  0  0  0
    6.6648   -1.0182    0.0000 C   0  0  0  0  0  0  0  0  0  0  0  0
    5.1350   -1.5182    0.0000 C   0  0  0  0  0  0  0  0  0  0  0  0
    6.3919    0.7371    0.0000 C   0  0  0  0  0  0  0  0  0  0  0  0
    7.6648   -1.0182    0.0000 C   0  0  0  0  0  0  0  0  0  0  0  0
    4.2690   -0.0181    0.0000 C   0  0  0  0  0  0  0  0  0  0  0  0
    3.4030   -0.5181    0.0000 C   0  0  0  0  0  0  0  0  0  0  0  0
    3.4030   -1.5182    0.0000 C   0  0  0  0  0  0  0  0  0  0  0  0
    8.1648   -1.8842    0.0000 C   0  0  0  0  0  0  0  0  0  0  0  0
    8.1648   -0.1521    0.0000 C   0  0  0  0  0  0  0  0  0  0  0  0
    7.3704    0.9433    0.0000 C   0  0  0  0  0  0  0  0  0  0  0  0
    5.7240    1.4814    0.0000 C   0  0  0  0  0  0  0  0  0  0  0  0
    9.1648   -1.8842    0.0000 C   0  0  0  0  0  0  0  0  0  0  0  0
    9.1648   -0.1521    0.0000 C   0  0  0  0  0  0  0  0  0  0  0  0
    7.6811    1.8938    0.0000 C   0  0  0  0  0  0  0  0  0  0  0  0
    6.0347    2.4319    0.0000 C   0  0  0  0  0  0  0  0  0  0  0  0
    9.6648   -1.0182    0.0000 C   0  0  0  0  0  0  0  0  0  0  0  0
    3.4030    1.4818    0.0000 C   0  0  0  0  0  0  0  0  0  0  0  0
    6.2738   -2.4122    0.0000 H   0  0  0  0  0  0  0  0  0  0  0  0
    2.8660   -0.2081    0.0000 H   0  0  0  0  0  0  0  0  0  0  0  0
    7.8548   -2.4211    0.0000 H   0  0  0  0  0  0  0  0  0  0  0  0
    7.8548    0.3848    0.0000 H   0  0  0  0  0  0  0  0  0  0  0  0
    7.7845    0.4819    0.0000 H   0  0  0  0  0  0  0  0  0  0  0  0
    5.1174    1.3536    0.0000 H   0  0  0  0  0  0  0  0  0  0  0  0
    9.4748   -2.4211    0.0000 H   0  0  0  0  0  0  0  0  0  0  0  0
    9.4748    0.3848    0.0000 H   0  0  0  0  0  0  0  0  0  0  0  0
    8.2877    2.0217    0.0000 H   0  0  0  0  0  0  0  0  0  0  0  0
    5.6207    2.8934    0.0000 H   0  0  0  0  0  0  0  0  0  0  0  0
    2.0000   -1.7082    0.0000 H   0  0  0  0  0  0  0  0  0  0  0  0
    2.5369   -2.6382    0.0000 H   0  0  0  0  0  0  0  0  0  0  0  0
    3.7130    2.0188    0.0000 H   0  0  0  0  0  0  0  0  0  0  0  0
    2.8660    1.7918    0.0000 H   0  0  0  0  0  0  0  0  0  0  0  0
    3.0930    0.9449    0.0000 H   0  0  0  0  0  0  0  0  0  0  0  0
  1 24  1  0  0  0  0
  2 13  1  0  0  0  0
  2 25  1  0  0  0  0
  3  9  1  0  0  0  0
  3 10  1  0  0  0  0
  3 26  1  0  0  0  0
  4 10  1  0  0  0  0
  4 15  2  0  0  0  0
  5 15  1  0  0  0  0
  5 36  1  0  0  0  0
  5 37  1  0  0  0  0
  6 22  2  0  0  0  0
  6 23  1  0  0  0  0
  7  8  1  0  0  0  0
  7  9  2  0  0  0  0
  7 11  1  0  0  0  0
  8 10  2  0  0  0  0
  8 13  1  0  0  0  0
  9 12  1  0  0  0  0
 11 18  2  0  0  0  0
 11 19  1  0  0  0  0
 12 16  2  0  0  0  0
 12 17  1  0  0  0  0
 13 14  2  0  0  0  0
 14 15  1  0  0  0  0
 14 27  1  0  0  0  0
 16 20  1  0  0  0  0
 16 28  1  0  0  0  0
 17 21  2  0  0  0  0
 17 29  1  0  0  0  0
 18 22  1  0  0  0  0
 18 30  1  0  0  0  0
 19 23  2  0  0  0  0
 19 31  1  0  0  0  0
 20 24  2  0  0  0  0
 20 32  1  0  0  0  0
 21 24  1  0  0  0  0
 21 33  1  0  0  0  0
 22 34  1  0  0  0  0
 23 35  1  0  0  0  0
 25 38  1  0  0  0  0
 25 39  1  0  0  0  0
 25 40  1  0  0  0  0
M  END
> <PUBCHEM_COMPOUND_CID>
9819053

> <PUBCHEM_COMPOUND_CANONICALIZED>
1

> <PUBCHEM_CACTVS_COMPLEXITY>
439

> <PUBCHEM_CACTVS_HBOND_ACCEPTOR>
5

> <PUBCHEM_CACTVS_HBOND_DONOR>
2

> <PUBCHEM_CACTVS_ROTATABLE_BOND>
3

> <PUBCHEM_CACTVS_SUBSKEYS>
AAADccB7oQAAAAAAAAAAAAAAAAAAAWAAAAA8WIAAAAAAAFgB/gAAHwAQAAAADAzBnw4/tt7JlACgAzZnZACCiCmxIqAJ2SA+bJiMLuLEuZuEMChu0BvI6CewwPAOgAAAAAAAAAAAAAAAAAAAAAAAAAAAAA==

> <PUBCHEM_IUPAC_OPENEYE_NAME>
2-(4-fluorophenyl)-4-methoxy-3-(4-pyridyl)-1H-pyrrolo[2,3-b]pyridin-6-amine

> <PUBCHEM_IUPAC_CAS_NAME>
2-(4-fluorophenyl)-4-methoxy-3-pyridin-4-yl-1H-pyrrolo[2,3-b]pyridin-6-amine

> <PUBCHEM_IUPAC_NAME_MARKUP>
2-(4-fluorophenyl)-4-methoxy-3-pyridin-4-yl-1<I>H</I>-pyrrolo[2,3-b]pyridin-6-amine

> <PUBCHEM_IUPAC_NAME>
2-(4-fluorophenyl)-4-methoxy-3-pyridin-4-yl-1H-pyrrolo[2,3-b]pyridin-6-amine

> <PUBCHEM_IUPAC_SYSTEMATIC_NAME>
2-(4-fluorophenyl)-4-methoxy-3-pyridin-4-yl-1H-pyrrolo[2,3-b]pyridin-6-amine

> <PUBCHEM_IUPAC_TRADITIONAL_NAME>
[2-(4-fluorophenyl)-4-methoxy-3-(4-pyridyl)-1H-pyrrolo[2,3-b]pyridin-6-yl]amine

> <PUBCHEM_IUPAC_INCHI>
InChI=1S/C19H15FN4O/c1-25-14-10-15(21)23-19-17(14)16(11-6-8-22-9-7-11)18(24-19)12-2-4-13(20)5-3-12/h2-10H,1H3,(H3,21,23,24)

> <PUBCHEM_IUPAC_INCHIKEY>
ADQZGIYHFQQPRB-UHFFFAOYSA-N

> <PUBCHEM_XLOGP3_AA>
3.3

> <PUBCHEM_EXACT_MASS>
334.12298928

> <PUBCHEM_MOLECULAR_FORMULA>
C19H15FN4O

> <PUBCHEM_MOLECULAR_WEIGHT>
334.3

> <PUBCHEM_SMILES>
COC1=CC(=NC2=C1C(=C(N2)C3=CC=C(C=C3)F)C4=CC=NC=C4)N

> <PUBCHEM_OPENEYE_CAN_SMILES>
COC1=CC(=NC2=C1C(=C(N2)C3=CC=C(C=C3)F)C4=CC=NC=C4)N

> <PUBCHEM_OPENEYE_ISO_SMILES>
COC1=CC(=NC2=C1C(=C(N2)C3=CC=C(C=C3)F)C4=CC=NC=C4)N

> <PUBCHEM_CACTVS_TPSA>
76.8

> <PUBCHEM_MONOISOTOPIC_WEIGHT>
334.12298928

> <PUBCHEM_TOTAL_CHARGE>
0

> <PUBCHEM_HEAVY_ATOM_COUNT>
25

> <PUBCHEM_ATOM_DEF_STEREO_COUNT>
0

> <PUBCHEM_ATOM_UDEF_STEREO_COUNT>
0

> <PUBCHEM_BOND_DEF_STEREO_COUNT>
0

> <PUBCHEM_BOND_UDEF_STEREO_COUNT>
0

> <PUBCHEM_ISOTOPIC_ATOM_COUNT>
0

> <PUBCHEM_COMPONENT_COUNT>
1

> <PUBCHEM_CACTVS_TAUTO_COUNT>
-1

> <PUBCHEM_COORDINATE_TYPE>
1
5
255

> <PUBCHEM_BONDANNOTATIONS>
11  18  8
11  19  8
12  16  8
12  17  8
13  14  8
14  15  8
16  20  8
17  21  8
18  22  8
19  23  8
20  24  8
21  24  8
3  10  8
3  9  8
4  10  8
4  15  8
6  22  8
6  23  8
7  8  8
7  9  8
8  10  8
8  13  8

$$$$
