49830303
  -OEChem-03202501092D

 42 44  0     0  0  0  0  0  0999 V2000
    7.2566   -0.2075    0.0000 Cl  0  0  0  0  0  0  0  0  0  0  0  0
    3.9639    0.8687    0.0000 N   0  0  0  0  0  0  0  0  0  0  0  0
    3.2496    4.2583    0.0000 N   0  0  0  0  0  0  0  0  0  0  0  0
    4.3211   -0.8262    0.0000 N   0  0  0  0  0  0  0  0  0  0  0  0
    4.6783   -4.1304    0.0000 N   0  0  0  0  0  0  0  0  0  0  0  0
    5.6103    0.3306    0.0000 N   0  0  0  0  0  0  0  0  0  0  0  0
    2.8660   -4.3257    0.0000 N   0  0  0  0  0  0  0  0  0  0  0  0
    3.6067    2.5635    0.0000 C   0  0  0  0  0  0  0  0  0  0  0  0
    4.2746    1.8192    0.0000 C   0  0  0  0  0  0  0  0  0  0  0  0
    2.9389    3.3078    0.0000 C   0  0  0  0  0  0  0  0  0  0  0  0
    4.3510    3.2313    0.0000 C   0  0  0  0  0  0  0  0  0  0  0  0
    2.8624    1.8956    0.0000 C   0  0  0  0  0  0  0  0  0  0  0  0
    4.6318    0.1244    0.0000 C   0  0  0  0  0  0  0  0  0  0  0  0
    4.6783   -2.5210    0.0000 C   0  0  0  0  0  0  0  0  0  0  0  0
    4.9889   -1.5705    0.0000 C   0  0  0  0  0  0  0  0  0  0  0  0
    3.7320   -2.8257    0.0000 C   0  0  0  0  0  0  0  0  0  0  0  0
    3.7320   -3.8257    0.0000 C   0  0  0  0  0  0  0  0  0  0  0  0
    5.2619   -3.3257    0.0000 C   0  0  0  0  0  0  0  0  0  0  0  0
    5.9674   -1.3642    0.0000 C   0  0  0  0  0  0  0  0  0  0  0  0
    2.8660   -2.3257    0.0000 C   0  0  0  0  0  0  0  0  0  0  0  0
    6.2781   -0.4137    0.0000 C   0  0  0  0  0  0  0  0  0  0  0  0
    2.0000   -2.8257    0.0000 C   0  0  0  0  0  0  0  0  0  0  0  0
    2.0000   -3.8257    0.0000 C   0  0  0  0  0  0  0  0  0  0  0  0
    4.8215    1.5272    0.0000 H   0  0  0  0  0  0  0  0  0  0  0  0
    4.6571    2.3071    0.0000 H   0  0  0  0  0  0  0  0  0  0  0  0
    2.3920    3.5998    0.0000 H   0  0  0  0  0  0  0  0  0  0  0  0
    2.5563    2.8199    0.0000 H   0  0  0  0  0  0  0  0  0  0  0  0
    4.7651    2.7699    0.0000 H   0  0  0  0  0  0  0  0  0  0  0  0
    4.8125    3.6454    0.0000 H   0  0  0  0  0  0  0  0  0  0  0  0
    3.9370    3.6928    0.0000 H   0  0  0  0  0  0  0  0  0  0  0  0
    2.4484    2.3571    0.0000 H   0  0  0  0  0  0  0  0  0  0  0  0
    2.4010    1.4816    0.0000 H   0  0  0  0  0  0  0  0  0  0  0  0
    3.2765    1.4342    0.0000 H   0  0  0  0  0  0  0  0  0  0  0  0
    3.3572    0.7408    0.0000 H   0  0  0  0  0  0  0  0  0  0  0  0
    2.8355    4.7198    0.0000 H   0  0  0  0  0  0  0  0  0  0  0  0
    3.8562    4.3862    0.0000 H   0  0  0  0  0  0  0  0  0  0  0  0
    5.8819   -3.3257    0.0000 H   0  0  0  0  0  0  0  0  0  0  0  0
    4.8709   -4.7198    0.0000 H   0  0  0  0  0  0  0  0  0  0  0  0
    6.3815   -1.8257    0.0000 H   0  0  0  0  0  0  0  0  0  0  0  0
    2.8660   -1.7057    0.0000 H   0  0  0  0  0  0  0  0  0  0  0  0
    1.4631   -2.5157    0.0000 H   0  0  0  0  0  0  0  0  0  0  0  0
    1.4631   -4.1357    0.0000 H   0  0  0  0  0  0  0  0  0  0  0  0
  1 21  1  0  0  0  0
  2  9  1  0  0  0  0
  2 13  1  0  0  0  0
  2 34  1  0  0  0  0
  3 10  1  0  0  0  0
  3 35  1  0  0  0  0
  3 36  1  0  0  0  0
  4 13  2  0  0  0  0
  4 15  1  0  0  0  0
  5 17  1  0  0  0  0
  5 18  1  0  0  0  0
  5 38  1  0  0  0  0
  6 13  1  0  0  0  0
  6 21  2  0  0  0  0
  7 17  1  0  0  0  0
  7 23  2  0  0  0  0
  8  9  1  0  0  0  0
  8 10  1  0  0  0  0
  8 11  1  0  0  0  0
  8 12  1  0  0  0  0
  9 24  1  0  0  0  0
  9 25  1  0  0  0  0
 10 26  1  0  0  0  0
 10 27  1  0  0  0  0
 11 28  1  0  0  0  0
 11 29  1  0  0  0  0
 11 30  1  0  0  0  0
 12 31  1  0  0  0  0
 12 32  1  0  0  0  0
 12 33  1  0  0  0  0
 14 15  1  0  0  0  0
 14 16  1  0  0  0  0
 14 18  2  0  0  0  0
 15 19  2  0  0  0  0
 16 17  2  0  0  0  0
 16 20  1  0  0  0  0
 18 37  1  0  0  0  0
 19 21  1  0  0  0  0
 19 39  1  0  0  0  0
 20 22  2  0  0  0  0
 20 40  1  0  0  0  0
 22 23  1  0  0  0  0
 22 41  1  0  0  0  0
 23 42  1  0  0  0  0
M  END
> <PUBCHEM_COMPOUND_CID>
49830303

> <PUBCHEM_COMPOUND_CANONICALIZED>
1

> <PUBCHEM_CACTVS_COMPLEXITY>
393

> <PUBCHEM_CACTVS_HBOND_ACCEPTOR>
5

> <PUBCHEM_CACTVS_HBOND_DONOR>
3

> <PUBCHEM_CACTVS_ROTATABLE_BOND>
5

> <PUBCHEM_CACTVS_SUBSKEYS>
AAADceB7gAAEAAAAAAAAAAAAAAAAAWAAAAAsWAAAAAAAAFgB/gAAHAIQAAAADgrBHyQ/sN7JkACgAzZnZACCgCmxB6AJ2aA4ZpiIKOLB29GEJAhogALIyCcQgIAOgAAAAAAAAAAAAAAAAAAAAAAAAAAAAA==

> <PUBCHEM_IUPAC_OPENEYE_NAME>
N'-[4-chloro-6-(1H-pyrrolo[2,3-b]pyridin-3-yl)pyrimidin-2-yl]-2,2-dimethyl-propane-1,3-diamine

> <PUBCHEM_IUPAC_CAS_NAME>
N'-[4-chloro-6-(1H-pyrrolo[2,3-b]pyridin-3-yl)-2-pyrimidinyl]-2,2-dimethylpropane-1,3-diamine

> <PUBCHEM_IUPAC_NAME_MARKUP>
<I>N</I>&apos;-[4-chloro-6-(1<I>H</I>-pyrrolo[2,3-b]pyridin-3-yl)pyrimidin-2-yl]-2,2-dimethylpropane-1,3-diamine

> <PUBCHEM_IUPAC_NAME>
N'-[4-chloro-6-(1H-pyrrolo[2,3-b]pyridin-3-yl)pyrimidin-2-yl]-2,2-dimethylpropane-1,3-diamine

> <PUBCHEM_IUPAC_SYSTEMATIC_NAME>
N'-[4-chloranyl-6-(1H-pyrrolo[2,3-b]pyridin-3-yl)pyrimidin-2-yl]-2,2-dimethyl-propane-1,3-diamine

> <PUBCHEM_IUPAC_TRADITIONAL_NAME>
(3-amino-2,2-dimethyl-propyl)-[4-chloro-6-(1H-pyrrolo[2,3-b]pyridin-3-yl)pyrimidin-2-yl]amine

> <PUBCHEM_IUPAC_INCHI>
InChI=1S/C16H19ClN6/c1-16(2,8-18)9-21-15-22-12(6-13(17)23-15)11-7-20-14-10(11)4-3-5-19-14/h3-7H,8-9,18H2,1-2H3,(H,19,20)(H,21,22,23)

> <PUBCHEM_IUPAC_INCHIKEY>
HOYRWTWZUFFACV-UHFFFAOYSA-N

> <PUBCHEM_XLOGP3_AA>
3.3

> <PUBCHEM_EXACT_MASS>
330.1359723

> <PUBCHEM_MOLECULAR_FORMULA>
C16H19ClN6

> <PUBCHEM_MOLECULAR_WEIGHT>
330.81

> <PUBCHEM_SMILES>
CC(C)(CN)CNC1=NC(=CC(=N1)Cl)C2=CNC3=C2C=CC=N3

> <PUBCHEM_OPENEYE_CAN_SMILES>
CC(C)(CN)CNC1=NC(=CC(=N1)Cl)C2=CNC3=C2C=CC=N3

> <PUBCHEM_OPENEYE_ISO_SMILES>
CC(C)(CN)CNC1=NC(=CC(=N1)Cl)C2=CNC3=C2C=CC=N3

> <PUBCHEM_CACTVS_TPSA>
92.5

> <PUBCHEM_MONOISOTOPIC_WEIGHT>
330.1359723

> <PUBCHEM_TOTAL_CHARGE>
0

> <PUBCHEM_HEAVY_ATOM_COUNT>
23

> <PUBCHEM_ATOM_DEF_STEREO_COUNT>
0

> <PUBCHEM_ATOM_UDEF_STEREO_COUNT>
0

> <PUBCHEM_BOND_DEF_STEREO_COUNT>
0

> <PUBCHEM_BOND_UDEF_STEREO_COUNT>
0

> <PUBCHEM_ISOTOPIC_ATOM_COUNT>
0

> <PUBCHEM_COMPONENT_COUNT>
1

> <PUBCHEM_CACTVS_TAUTO_COUNT>
-1

> <PUBCHEM_COORDINATE_TYPE>
1
5
255

> <PUBCHEM_BONDANNOTATIONS>
14  16  8
14  18  8
15  19  8
16  17  8
16  20  8
19  21  8
20  22  8
22  23  8
4  13  8
4  15  8
5  17  8
5  18  8
6  13  8
6  21  8
7  17  8
7  23  8

$$$$
