9948405
  -OEChem-03202505572D

 39 42  0     0  0  0  0  0  0999 V2000
    4.1759    1.9153    0.0000 O   0  0  0  0  0  0  0  0  0  0  0  0
    6.8785    0.4208    0.0000 N   0  0  0  0  0  0  0  0  0  0  0  0
    8.4083   -0.0792    0.0000 N   0  0  0  0  0  0  0  0  0  0  0  0
    7.8247   -0.8839    0.0000 N   0  0  0  0  0  0  0  0  0  0  0  0
    2.6978    1.2572    0.0000 N   0  0  0  0  0  0  0  0  0  0  0  0
    8.1354    1.6761    0.0000 C   0  0  0  0  0  0  0  0  0  0  0  0
    7.8247    0.7255    0.0000 C   0  0  0  0  0  0  0  0  0  0  0  0
    6.8785   -0.5792    0.0000 C   0  0  0  0  0  0  0  0  0  0  0  0
    6.0125    0.9208    0.0000 C   0  0  0  0  0  0  0  0  0  0  0  0
    5.1464    0.4208    0.0000 C   0  0  0  0  0  0  0  0  0  0  0  0
    9.1139    1.8823    0.0000 C   0  0  0  0  0  0  0  0  0  0  0  0
    7.4675    2.4204    0.0000 C   0  0  0  0  0  0  0  0  0  0  0  0
    6.0125   -1.0792    0.0000 C   0  0  0  0  0  0  0  0  0  0  0  0
    4.2804    0.9208    0.0000 C   0  0  0  0  0  0  0  0  0  0  0  0
    5.1464   -0.5792    0.0000 C   0  0  0  0  0  0  0  0  0  0  0  0
    3.3669    0.5141    0.0000 C   0  0  0  0  0  0  0  0  0  0  0  0
    3.1590   -0.4641    0.0000 C   0  0  0  0  0  0  0  0  0  0  0  0
    3.1978    2.1232    0.0000 C   0  0  0  0  0  0  0  0  0  0  0  0
    3.9021   -1.1332    0.0000 C   0  0  0  0  0  0  0  0  0  0  0  0
    2.2079   -0.7731    0.0000 C   0  0  0  0  0  0  0  0  0  0  0  0
    3.6942   -2.1114    0.0000 C   0  0  0  0  0  0  0  0  0  0  0  0
    2.0000   -1.7512    0.0000 C   0  0  0  0  0  0  0  0  0  0  0  0
    2.7431   -2.4204    0.0000 C   0  0  0  0  0  0  0  0  0  0  0  0
    7.5287    1.5482    0.0000 H   0  0  0  0  0  0  0  0  0  0  0  0
    6.0125    1.5408    0.0000 H   0  0  0  0  0  0  0  0  0  0  0  0
    9.2417    1.2756    0.0000 H   0  0  0  0  0  0  0  0  0  0  0  0
    9.7206    2.0101    0.0000 H   0  0  0  0  0  0  0  0  0  0  0  0
    8.9860    2.4890    0.0000 H   0  0  0  0  0  0  0  0  0  0  0  0
    7.9290    2.8344    0.0000 H   0  0  0  0  0  0  0  0  0  0  0  0
    7.0535    2.8818    0.0000 H   0  0  0  0  0  0  0  0  0  0  0  0
    7.0061    2.0063    0.0000 H   0  0  0  0  0  0  0  0  0  0  0  0
    6.0125   -1.6992    0.0000 H   0  0  0  0  0  0  0  0  0  0  0  0
    4.6095   -0.8892    0.0000 H   0  0  0  0  0  0  0  0  0  0  0  0
    2.9456    2.6896    0.0000 H   0  0  0  0  0  0  0  0  0  0  0  0
    4.4918   -0.9416    0.0000 H   0  0  0  0  0  0  0  0  0  0  0  0
    1.7472   -0.3582    0.0000 H   0  0  0  0  0  0  0  0  0  0  0  0
    4.1550   -2.5262    0.0000 H   0  0  0  0  0  0  0  0  0  0  0  0
    1.4103   -1.9428    0.0000 H   0  0  0  0  0  0  0  0  0  0  0  0
    2.6142   -3.0268    0.0000 H   0  0  0  0  0  0  0  0  0  0  0  0
  1 14  1  0  0  0  0
  1 18  1  0  0  0  0
  2  7  1  0  0  0  0
  2  8  1  0  0  0  0
  2  9  1  0  0  0  0
  3  4  1  0  0  0  0
  3  7  2  0  0  0  0
  4  8  2  0  0  0  0
  5 16  1  0  0  0  0
  5 18  2  0  0  0  0
  6  7  1  0  0  0  0
  6 11  1  0  0  0  0
  6 12  1  0  0  0  0
  6 24  1  0  0  0  0
  8 13  1  0  0  0  0
  9 10  2  0  0  0  0
  9 25  1  0  0  0  0
 10 14  1  0  0  0  0
 10 15  1  0  0  0  0
 11 26  1  0  0  0  0
 11 27  1  0  0  0  0
 11 28  1  0  0  0  0
 12 29  1  0  0  0  0
 12 30  1  0  0  0  0
 12 31  1  0  0  0  0
 13 15  2  0  0  0  0
 13 32  1  0  0  0  0
 14 16  2  0  0  0  0
 15 33  1  0  0  0  0
 16 17  1  0  0  0  0
 17 19  2  0  0  0  0
 17 20  1  0  0  0  0
 18 34  1  0  0  0  0
 19 21  1  0  0  0  0
 19 35  1  0  0  0  0
 20 22  2  0  0  0  0
 20 36  1  0  0  0  0
 21 23  2  0  0  0  0
 21 37  1  0  0  0  0
 22 23  1  0  0  0  0
 22 38  1  0  0  0  0
 23 39  1  0  0  0  0
M  END
> <PUBCHEM_COMPOUND_CID>
9948405

> <PUBCHEM_COMPOUND_CANONICALIZED>
1

> <PUBCHEM_CACTVS_COMPLEXITY>
398

> <PUBCHEM_CACTVS_HBOND_ACCEPTOR>
4

> <PUBCHEM_CACTVS_HBOND_DONOR>
0

> <PUBCHEM_CACTVS_ROTATABLE_BOND>
3

> <PUBCHEM_CACTVS_SUBSKEYS>
AAADceB7oAAAAAAAAAAAAAAAAAAAAWLAAAA8QAAAAAAAAFgB/AAAHgAIAAAADQzBnwY/tJ8MHECqA7Z39ASSjCs/YqAd2CG9bNiOLvrEvbuNsahmzAPY6eeY2eKOAAAAAAAAAAAAAAAAAAAAAAAAAAAAAA==

> <PUBCHEM_IUPAC_OPENEYE_NAME>
5-(3-isopropyl-[1,2,4]triazolo[4,3-a]pyridin-6-yl)-4-phenyl-oxazole

> <PUBCHEM_IUPAC_CAS_NAME>
4-phenyl-5-(3-propan-2-yl-[1,2,4]triazolo[4,3-a]pyridin-6-yl)oxazole

> <PUBCHEM_IUPAC_NAME_MARKUP>
4-phenyl-5-(3-propan-2-yl-[1,2,4]triazolo[4,3-a]pyridin-6-yl)-1,3-oxazole

> <PUBCHEM_IUPAC_NAME>
4-phenyl-5-(3-propan-2-yl-[1,2,4]triazolo[4,3-a]pyridin-6-yl)-1,3-oxazole

> <PUBCHEM_IUPAC_SYSTEMATIC_NAME>
4-phenyl-5-(3-propan-2-yl-[1,2,4]triazolo[4,3-a]pyridin-6-yl)-1,3-oxazole

> <PUBCHEM_IUPAC_TRADITIONAL_NAME>
5-(3-isopropyl-[1,2,4]triazolo[4,3-a]pyridin-6-yl)-4-phenyl-oxazole

> <PUBCHEM_IUPAC_INCHI>
InChI=1S/C18H16N4O/c1-12(2)18-21-20-15-9-8-14(10-22(15)18)17-16(19-11-23-17)13-6-4-3-5-7-13/h3-12H,1-2H3

> <PUBCHEM_IUPAC_INCHIKEY>
GGUWFBJTYKFSCP-UHFFFAOYSA-N

> <PUBCHEM_XLOGP3_AA>
4.1

> <PUBCHEM_EXACT_MASS>
304.13241115

> <PUBCHEM_MOLECULAR_FORMULA>
C18H16N4O

> <PUBCHEM_MOLECULAR_WEIGHT>
304.3

> <PUBCHEM_SMILES>
CC(C)C1=NN=C2N1C=C(C=C2)C3=C(N=CO3)C4=CC=CC=C4

> <PUBCHEM_OPENEYE_CAN_SMILES>
CC(C)C1=NN=C2N1C=C(C=C2)C3=C(N=CO3)C4=CC=CC=C4

> <PUBCHEM_OPENEYE_ISO_SMILES>
CC(C)C1=NN=C2N1C=C(C=C2)C3=C(N=CO3)C4=CC=CC=C4

> <PUBCHEM_CACTVS_TPSA>
56.2

> <PUBCHEM_MONOISOTOPIC_WEIGHT>
304.13241115

> <PUBCHEM_TOTAL_CHARGE>
0

> <PUBCHEM_HEAVY_ATOM_COUNT>
23

> <PUBCHEM_ATOM_DEF_STEREO_COUNT>
0

> <PUBCHEM_ATOM_UDEF_STEREO_COUNT>
0

> <PUBCHEM_BOND_DEF_STEREO_COUNT>
0

> <PUBCHEM_BOND_UDEF_STEREO_COUNT>
0

> <PUBCHEM_ISOTOPIC_ATOM_COUNT>
0

> <PUBCHEM_COMPONENT_COUNT>
1

> <PUBCHEM_CACTVS_TAUTO_COUNT>
-1

> <PUBCHEM_COORDINATE_TYPE>
1
5
255

> <PUBCHEM_BONDANNOTATIONS>
1  14  8
1  18  8
10  15  8
13  15  8
14  16  8
17  19  8
17  20  8
19  21  8
2  7  8
2  8  8
2  9  8
20  22  8
21  23  8
22  23  8
3  4  8
3  7  8
4  8  8
5  16  8
5  18  8
8  13  8
9  10  8

$$$$
