3142817
  -OEChem-03202506282D

 45 48  0     0  0  0  0  0  0999 V2000
    4.6783   -1.5249    0.0000 S   0  0  0  0  0  0  0  0  0  0  0  0
    9.7619   -1.4636    0.0000 S   0  0  0  0  0  0  0  0  0  0  0  0
    6.2619   -4.0617    0.0000 O   0  0  0  0  0  0  0  0  0  0  0  0
   11.2619   -0.5976    0.0000 O   0  0  0  0  0  0  0  0  0  0  0  0
   13.7619    3.7326    0.0000 O   0  5  0  0  0  0  0  0  0  0  0  0
   12.2619    4.5986    0.0000 O   0  0  0  0  0  0  0  0  0  0  0  0
    4.6783   -3.1343    0.0000 N   0  0  0  0  0  0  0  0  0  0  0  0
    8.2619   -0.5976    0.0000 N   0  0  0  0  0  0  0  0  0  0  0  0
    9.7619    0.2685    0.0000 N   0  0  0  0  0  0  0  0  0  0  0  0
   12.7619    3.7326    0.0000 N   0  3  0  0  0  0  0  0  0  0  0  0
    6.2619   -2.3296    0.0000 C   0  0  0  0  0  0  0  0  0  0  0  0
    5.2619   -2.3296    0.0000 C   0  0  0  0  0  0  0  0  0  0  0  0
    6.7619   -1.4636    0.0000 C   0  0  0  0  0  0  0  0  0  0  0  0
    7.7619   -1.4636    0.0000 C   0  0  0  0  0  0  0  0  0  0  0  0
    3.7320   -1.8296    0.0000 C   0  0  0  0  0  0  0  0  0  0  0  0
    3.7320   -2.8296    0.0000 C   0  0  0  0  0  0  0  0  0  0  0  0
    6.7619   -3.1956    0.0000 C   0  0  0  0  0  0  0  0  0  0  0  0
    8.2619   -2.3296    0.0000 C   0  0  0  0  0  0  0  0  0  0  0  0
    7.7619   -3.1956    0.0000 C   0  0  0  0  0  0  0  0  0  0  0  0
    2.8660   -1.3296    0.0000 C   0  0  0  0  0  0  0  0  0  0  0  0
    2.8660   -3.3296    0.0000 C   0  0  0  0  0  0  0  0  0  0  0  0
    2.0000   -1.8296    0.0000 C   0  0  0  0  0  0  0  0  0  0  0  0
    2.0000   -2.8296    0.0000 C   0  0  0  0  0  0  0  0  0  0  0  0
   11.2619    1.1345    0.0000 C   0  0  0  0  0  0  0  0  0  0  0  0
    9.2619   -0.5976    0.0000 C   0  0  0  0  0  0  0  0  0  0  0  0
   10.7619    0.2685    0.0000 C   0  0  0  0  0  0  0  0  0  0  0  0
   12.2619    1.1345    0.0000 C   0  0  0  0  0  0  0  0  0  0  0  0
   10.7619    2.0005    0.0000 C   0  0  0  0  0  0  0  0  0  0  0  0
   12.2619    2.8665    0.0000 C   0  0  0  0  0  0  0  0  0  0  0  0
   12.7619    2.0005    0.0000 C   0  0  0  0  0  0  0  0  0  0  0  0
   11.2619    2.8665    0.0000 C   0  0  0  0  0  0  0  0  0  0  0  0
    6.4519   -0.9266    0.0000 H   0  0  0  0  0  0  0  0  0  0  0  0
    8.8819   -2.3296    0.0000 H   0  0  0  0  0  0  0  0  0  0  0  0
    8.0719   -3.7326    0.0000 H   0  0  0  0  0  0  0  0  0  0  0  0
    2.8660   -0.7096    0.0000 H   0  0  0  0  0  0  0  0  0  0  0  0
    2.8660   -3.9496    0.0000 H   0  0  0  0  0  0  0  0  0  0  0  0
    7.9519   -0.0606    0.0000 H   0  0  0  0  0  0  0  0  0  0  0  0
    1.4631   -1.5196    0.0000 H   0  0  0  0  0  0  0  0  0  0  0  0
    1.4631   -3.1396    0.0000 H   0  0  0  0  0  0  0  0  0  0  0  0
    9.4519    0.8054    0.0000 H   0  0  0  0  0  0  0  0  0  0  0  0
   12.5719    0.5976    0.0000 H   0  0  0  0  0  0  0  0  0  0  0  0
   10.1419    2.0005    0.0000 H   0  0  0  0  0  0  0  0  0  0  0  0
   13.3819    2.0005    0.0000 H   0  0  0  0  0  0  0  0  0  0  0  0
   10.9519    3.4035    0.0000 H   0  0  0  0  0  0  0  0  0  0  0  0
    6.5719   -4.5986    0.0000 H   0  0  0  0  0  0  0  0  0  0  0  0
  1 12  1  0  0  0  0
  1 15  1  0  0  0  0
  2 25  2  0  0  0  0
  3 17  1  0  0  0  0
  3 45  1  0  0  0  0
  4 26  2  0  0  0  0
  5 10  1  0  0  0  0
  6 10  2  0  0  0  0
  7 12  2  0  0  0  0
  7 16  1  0  0  0  0
  8 14  1  0  0  0  0
  8 25  1  0  0  0  0
  8 37  1  0  0  0  0
  9 25  1  0  0  0  0
  9 26  1  0  0  0  0
  9 40  1  0  0  0  0
 10 29  1  0  0  0  0
 11 12  1  0  0  0  0
 11 13  1  0  0  0  0
 11 17  2  0  0  0  0
 13 14  2  0  0  0  0
 13 32  1  0  0  0  0
 14 18  1  0  0  0  0
 15 16  1  0  0  0  0
 15 20  2  0  0  0  0
 16 21  2  0  0  0  0
 17 19  1  0  0  0  0
 18 19  2  0  0  0  0
 18 33  1  0  0  0  0
 19 34  1  0  0  0  0
 20 22  1  0  0  0  0
 20 35  1  0  0  0  0
 21 23  1  0  0  0  0
 21 36  1  0  0  0  0
 22 23  2  0  0  0  0
 22 38  1  0  0  0  0
 23 39  1  0  0  0  0
 24 26  1  0  0  0  0
 24 27  2  0  0  0  0
 24 28  1  0  0  0  0
 27 30  1  0  0  0  0
 27 41  1  0  0  0  0
 28 31  2  0  0  0  0
 28 42  1  0  0  0  0
 29 30  2  0  0  0  0
 29 31  1  0  0  0  0
 30 43  1  0  0  0  0
 31 44  1  0  0  0  0
M  CHG  2   5  -1  10   1
M  END
> <PUBCHEM_COMPOUND_CID>
3142817

> <PUBCHEM_COMPOUND_CANONICALIZED>
1

> <PUBCHEM_CACTVS_COMPLEXITY>
683

> <PUBCHEM_CACTVS_HBOND_ACCEPTOR>
7

> <PUBCHEM_CACTVS_HBOND_DONOR>
3

> <PUBCHEM_CACTVS_ROTATABLE_BOND>
3

> <PUBCHEM_CACTVS_SUBSKEYS>
AAADccB7uABgAAAAAAAAAAAAAAAAAWAAAAAwYMAAAAAAAFgB9AAAHgQUCAAADAyB3gAxx7LYUgitAyVyVwCD8KBlKjlomD02bNqIJrLilZOEcQhu0RPo2ae4ySCeCEAAQAAIAQAQgACAABACAAAAAAAAAA==

> <PUBCHEM_IUPAC_OPENEYE_NAME>
N-[[3-(1,3-benzothiazol-2-yl)-4-hydroxy-phenyl]carbamothioyl]-4-nitro-benzamide

> <PUBCHEM_IUPAC_CAS_NAME>
N-[[3-(1,3-benzothiazol-2-yl)-4-hydroxyanilino]-sulfanylidenemethyl]-4-nitrobenzamide

> <PUBCHEM_IUPAC_NAME_MARKUP>
<I>N</I>-[[3-(1,3-benzothiazol-2-yl)-4-hydroxyphenyl]carbamothioyl]-4-nitrobenzamide

> <PUBCHEM_IUPAC_NAME>
N-[[3-(1,3-benzothiazol-2-yl)-4-hydroxyphenyl]carbamothioyl]-4-nitrobenzamide

> <PUBCHEM_IUPAC_SYSTEMATIC_NAME>
N-[[3-(1,3-benzothiazol-2-yl)-4-oxidanyl-phenyl]carbamothioyl]-4-nitro-benzamide

> <PUBCHEM_IUPAC_TRADITIONAL_NAME>
N-[[3-(1,3-benzothiazol-2-yl)-4-hydroxy-phenyl]thiocarbamoyl]-4-nitro-benzamide

> <PUBCHEM_IUPAC_INCHI>
InChI=1S/C21H14N4O4S2/c26-17-10-7-13(11-15(17)20-23-16-3-1-2-4-18(16)31-20)22-21(30)24-19(27)12-5-8-14(9-6-12)25(28)29/h1-11,26H,(H2,22,24,27,30)

> <PUBCHEM_IUPAC_INCHIKEY>
FRHDZWLQTMKUPC-UHFFFAOYSA-N

> <PUBCHEM_XLOGP3_AA>
5.1

> <PUBCHEM_EXACT_MASS>
450.04564729

> <PUBCHEM_MOLECULAR_FORMULA>
C21H14N4O4S2

> <PUBCHEM_MOLECULAR_WEIGHT>
450.5

> <PUBCHEM_SMILES>
C1=CC=C2C(=C1)N=C(S2)C3=C(C=CC(=C3)NC(=S)NC(=O)C4=CC=C(C=C4)[N+](=O)[O-])O

> <PUBCHEM_OPENEYE_CAN_SMILES>
C1=CC=C2C(=C1)N=C(S2)C3=C(C=CC(=C3)NC(=S)NC(=O)C4=CC=C(C=C4)[N+](=O)[O-])O

> <PUBCHEM_OPENEYE_ISO_SMILES>
C1=CC=C2C(=C1)N=C(S2)C3=C(C=CC(=C3)NC(=S)NC(=O)C4=CC=C(C=C4)[N+](=O)[O-])O

> <PUBCHEM_CACTVS_TPSA>
180

> <PUBCHEM_MONOISOTOPIC_WEIGHT>
450.04564729

> <PUBCHEM_TOTAL_CHARGE>
0

> <PUBCHEM_HEAVY_ATOM_COUNT>
31

> <PUBCHEM_ATOM_DEF_STEREO_COUNT>
0

> <PUBCHEM_ATOM_UDEF_STEREO_COUNT>
0

> <PUBCHEM_BOND_DEF_STEREO_COUNT>
0

> <PUBCHEM_BOND_UDEF_STEREO_COUNT>
0

> <PUBCHEM_ISOTOPIC_ATOM_COUNT>
0

> <PUBCHEM_COMPONENT_COUNT>
1

> <PUBCHEM_CACTVS_TAUTO_COUNT>
-1

> <PUBCHEM_COORDINATE_TYPE>
1
5
255

> <PUBCHEM_BONDANNOTATIONS>
1  12  8
1  15  8
11  13  8
11  17  8
13  14  8
14  18  8
15  16  8
15  20  8
16  21  8
17  19  8
18  19  8
20  22  8
21  23  8
22  23  8
24  27  8
24  28  8
27  30  8
28  31  8
29  30  8
29  31  8
7  12  8
7  16  8

$$$$
