324081
  -OEChem-03202505172D

 28 30  0     0  0  0  0  0  0999 V2000
    4.6660   -0.5173    0.0000 N   0  0  0  0  0  0  0  0  0  0  0  0
    5.5321    0.9827    0.0000 N   0  0  0  0  0  0  0  0  0  0  0  0
    4.6660    2.4827    0.0000 N   0  0  0  0  0  0  0  0  0  0  0  0
    3.8000    0.9827    0.0000 C   0  0  0  0  0  0  0  0  0  0  0  0
    4.6660    0.4827    0.0000 C   0  0  0  0  0  0  0  0  0  0  0  0
    3.8000    1.9827    0.0000 C   0  0  0  0  0  0  0  0  0  0  0  0
    5.5321   -1.0173    0.0000 C   0  0  0  0  0  0  0  0  0  0  0  0
    2.9061    0.4480    0.0000 C   0  0  0  0  0  0  0  0  0  0  0  0
    2.9061    2.5173    0.0000 C   0  0  0  0  0  0  0  0  0  0  0  0
    2.0000    0.9619    0.0000 C   0  0  0  0  0  0  0  0  0  0  0  0
    2.0000    2.0035    0.0000 C   0  0  0  0  0  0  0  0  0  0  0  0
    6.3981   -0.5173    0.0000 C   0  0  0  0  0  0  0  0  0  0  0  0
    5.5321   -2.0173    0.0000 C   0  0  0  0  0  0  0  0  0  0  0  0
    5.5321    1.9827    0.0000 C   0  0  0  0  0  0  0  0  0  0  0  0
    7.2641   -1.0173    0.0000 C   0  0  0  0  0  0  0  0  0  0  0  0
    6.3981   -2.5173    0.0000 C   0  0  0  0  0  0  0  0  0  0  0  0
    7.2641   -2.0173    0.0000 C   0  0  0  0  0  0  0  0  0  0  0  0
    4.1291   -0.8273    0.0000 H   0  0  0  0  0  0  0  0  0  0  0  0
    2.9132   -0.1720    0.0000 H   0  0  0  0  0  0  0  0  0  0  0  0
    2.9132    3.1373    0.0000 H   0  0  0  0  0  0  0  0  0  0  0  0
    1.4643    0.6498    0.0000 H   0  0  0  0  0  0  0  0  0  0  0  0
    1.4643    2.3156    0.0000 H   0  0  0  0  0  0  0  0  0  0  0  0
    6.3981    0.1027    0.0000 H   0  0  0  0  0  0  0  0  0  0  0  0
    4.9951   -2.3273    0.0000 H   0  0  0  0  0  0  0  0  0  0  0  0
    6.0690    2.2927    0.0000 H   0  0  0  0  0  0  0  0  0  0  0  0
    7.8010   -0.7073    0.0000 H   0  0  0  0  0  0  0  0  0  0  0  0
    6.3981   -3.1373    0.0000 H   0  0  0  0  0  0  0  0  0  0  0  0
    7.8010   -2.3273    0.0000 H   0  0  0  0  0  0  0  0  0  0  0  0
  1  5  1  0  0  0  0
  1  7  1  0  0  0  0
  1 18  1  0  0  0  0
  2  5  2  0  0  0  0
  2 14  1  0  0  0  0
  3  6  1  0  0  0  0
  3 14  2  0  0  0  0
  4  5  1  0  0  0  0
  4  6  1  0  0  0  0
  4  8  2  0  0  0  0
  6  9  2  0  0  0  0
  7 12  2  0  0  0  0
  7 13  1  0  0  0  0
  8 10  1  0  0  0  0
  8 19  1  0  0  0  0
  9 11  1  0  0  0  0
  9 20  1  0  0  0  0
 10 11  2  0  0  0  0
 10 21  1  0  0  0  0
 11 22  1  0  0  0  0
 12 15  1  0  0  0  0
 12 23  1  0  0  0  0
 13 16  2  0  0  0  0
 13 24  1  0  0  0  0
 14 25  1  0  0  0  0
 15 17  2  0  0  0  0
 15 26  1  0  0  0  0
 16 17  1  0  0  0  0
 16 27  1  0  0  0  0
 17 28  1  0  0  0  0
M  END
> <PUBCHEM_COMPOUND_CID>
324081

> <PUBCHEM_COMPOUND_CANONICALIZED>
1

> <PUBCHEM_CACTVS_COMPLEXITY>
238

> <PUBCHEM_CACTVS_HBOND_ACCEPTOR>
3

> <PUBCHEM_CACTVS_HBOND_DONOR>
1

> <PUBCHEM_CACTVS_ROTATABLE_BOND>
2

> <PUBCHEM_CACTVS_SUBSKEYS>
AAADccBzAAAAAAAAAAAAAAAAAAAAAAAAAAA8YIAAAAAAAACx9AAAHAAQAAAADAiBHgQ18PbIEACgAyZjZACCgCkxAqAJ2CA4ZJiIKOLA2dGEJAhokALIyCcQgAAOAAAAAAACAAAAAAAAAAQAAAAAAAAAAA==

> <PUBCHEM_IUPAC_OPENEYE_NAME>
N-phenylquinazolin-4-amine

> <PUBCHEM_IUPAC_CAS_NAME>
N-phenyl-4-quinazolinamine

> <PUBCHEM_IUPAC_NAME_MARKUP>
<I>N</I>-phenylquinazolin-4-amine

> <PUBCHEM_IUPAC_NAME>
N-phenylquinazolin-4-amine

> <PUBCHEM_IUPAC_SYSTEMATIC_NAME>
N-phenylquinazolin-4-amine

> <PUBCHEM_IUPAC_TRADITIONAL_NAME>
phenyl(quinazolin-4-yl)amine

> <PUBCHEM_IUPAC_INCHI>
InChI=1S/C14H11N3/c1-2-6-11(7-3-1)17-14-12-8-4-5-9-13(12)15-10-16-14/h1-10H,(H,15,16,17)

> <PUBCHEM_IUPAC_INCHIKEY>
MTSNDBYBIZSILH-UHFFFAOYSA-N

> <PUBCHEM_XLOGP3>
4

> <PUBCHEM_EXACT_MASS>
221.095297364

> <PUBCHEM_MOLECULAR_FORMULA>
C14H11N3

> <PUBCHEM_MOLECULAR_WEIGHT>
221.26

> <PUBCHEM_SMILES>
C1=CC=C(C=C1)NC2=NC=NC3=CC=CC=C32

> <PUBCHEM_OPENEYE_CAN_SMILES>
C1=CC=C(C=C1)NC2=NC=NC3=CC=CC=C32

> <PUBCHEM_OPENEYE_ISO_SMILES>
C1=CC=C(C=C1)NC2=NC=NC3=CC=CC=C32

> <PUBCHEM_CACTVS_TPSA>
37.8

> <PUBCHEM_MONOISOTOPIC_WEIGHT>
221.095297364

> <PUBCHEM_TOTAL_CHARGE>
0

> <PUBCHEM_HEAVY_ATOM_COUNT>
17

> <PUBCHEM_ATOM_DEF_STEREO_COUNT>
0

> <PUBCHEM_ATOM_UDEF_STEREO_COUNT>
0

> <PUBCHEM_BOND_DEF_STEREO_COUNT>
0

> <PUBCHEM_BOND_UDEF_STEREO_COUNT>
0

> <PUBCHEM_ISOTOPIC_ATOM_COUNT>
0

> <PUBCHEM_COMPONENT_COUNT>
1

> <PUBCHEM_CACTVS_TAUTO_COUNT>
-1

> <PUBCHEM_COORDINATE_TYPE>
1
5
255

> <PUBCHEM_BONDANNOTATIONS>
10  11  8
12  15  8
13  16  8
15  17  8
16  17  8
2  14  8
2  5  8
3  14  8
3  6  8
4  5  8
4  6  8
4  8  8
6  9  8
7  12  8
7  13  8
8  10  8
9  11  8

$$$$
