49830533
  -OEChem-03202502332D

 48 50  0     0  0  0  0  0  0999 V2000
    9.7942    3.0600    0.0000 F   0  0  0  0  0  0  0  0  0  0  0  0
    8.7942    2.0600    0.0000 F   0  0  0  0  0  0  0  0  0  0  0  0
   10.7942    2.0600    0.0000 F   0  0  0  0  0  0  0  0  0  0  0  0
    5.4641    0.5600    0.0000 O   0  0  0  0  0  0  0  0  0  0  0  0
   12.4725   -2.2447    0.0000 N   0  0  0  0  0  0  0  0  0  0  0  0
    9.7942   -0.9400    0.0000 N   0  0  0  0  0  0  0  0  0  0  0  0
   10.6603   -2.4400    0.0000 N   0  0  0  0  0  0  0  0  0  0  0  0
    8.9282   -2.4400    0.0000 N   0  0  0  0  0  0  0  0  0  0  0  0
    4.5981   -0.9400    0.0000 N   0  0  0  0  0  0  0  0  0  0  0  0
   10.6603    0.5600    0.0000 C   0  0  0  0  0  0  0  0  0  0  0  0
   10.6603   -0.4400    0.0000 C   0  0  0  0  0  0  0  0  0  0  0  0
   11.5263   -0.9400    0.0000 C   0  0  0  0  0  0  0  0  0  0  0  0
    9.7942    1.0600    0.0000 C   0  0  0  0  0  0  0  0  0  0  0  0
   11.5263   -1.9400    0.0000 C   0  0  0  0  0  0  0  0  0  0  0  0
   12.4725   -0.6353    0.0000 C   0  0  0  0  0  0  0  0  0  0  0  0
    9.7942   -1.9400    0.0000 C   0  0  0  0  0  0  0  0  0  0  0  0
   13.0561   -1.4400    0.0000 C   0  0  0  0  0  0  0  0  0  0  0  0
    9.7942    2.0600    0.0000 C   0  0  0  0  0  0  0  0  0  0  0  0
    8.0622   -1.9400    0.0000 C   0  0  0  0  0  0  0  0  0  0  0  0
    6.3301   -0.9400    0.0000 C   0  0  0  0  0  0  0  0  0  0  0  0
    3.7320   -0.4400    0.0000 C   0  0  0  0  0  0  0  0  0  0  0  0
    8.0622   -0.9400    0.0000 C   0  0  0  0  0  0  0  0  0  0  0  0
    7.1962   -2.4400    0.0000 C   0  0  0  0  0  0  0  0  0  0  0  0
    2.8660   -0.9400    0.0000 C   0  0  0  0  0  0  0  0  0  0  0  0
    7.1962   -0.4400    0.0000 C   0  0  0  0  0  0  0  0  0  0  0  0
    6.3301   -1.9400    0.0000 C   0  0  0  0  0  0  0  0  0  0  0  0
    5.4641   -0.4400    0.0000 C   0  0  0  0  0  0  0  0  0  0  0  0
    2.0000   -0.4400    0.0000 C   0  0  0  0  0  0  0  0  0  0  0  0
   11.2708    0.4523    0.0000 H   0  0  0  0  0  0  0  0  0  0  0  0
   10.8723    1.1426    0.0000 H   0  0  0  0  0  0  0  0  0  0  0  0
    9.1836    1.1677    0.0000 H   0  0  0  0  0  0  0  0  0  0  0  0
    9.5822    0.4774    0.0000 H   0  0  0  0  0  0  0  0  0  0  0  0
   12.6651   -0.0459    0.0000 H   0  0  0  0  0  0  0  0  0  0  0  0
   12.6651   -2.8340    0.0000 H   0  0  0  0  0  0  0  0  0  0  0  0
   13.6761   -1.4400    0.0000 H   0  0  0  0  0  0  0  0  0  0  0  0
    8.9282   -3.0600    0.0000 H   0  0  0  0  0  0  0  0  0  0  0  0
    4.1306    0.0349    0.0000 H   0  0  0  0  0  0  0  0  0  0  0  0
    3.3335    0.0349    0.0000 H   0  0  0  0  0  0  0  0  0  0  0  0
    2.4675   -1.4150    0.0000 H   0  0  0  0  0  0  0  0  0  0  0  0
    3.2646   -1.4150    0.0000 H   0  0  0  0  0  0  0  0  0  0  0  0
    8.5991   -0.6300    0.0000 H   0  0  0  0  0  0  0  0  0  0  0  0
    7.1962   -3.0600    0.0000 H   0  0  0  0  0  0  0  0  0  0  0  0
    7.1962    0.1800    0.0000 H   0  0  0  0  0  0  0  0  0  0  0  0
    5.7932   -2.2500    0.0000 H   0  0  0  0  0  0  0  0  0  0  0  0
    4.5981   -1.5600    0.0000 H   0  0  0  0  0  0  0  0  0  0  0  0
    2.3100    0.0969    0.0000 H   0  0  0  0  0  0  0  0  0  0  0  0
    1.4631   -0.1300    0.0000 H   0  0  0  0  0  0  0  0  0  0  0  0
    1.6900   -0.9769    0.0000 H   0  0  0  0  0  0  0  0  0  0  0  0
  1 18  1  0  0  0  0
  2 18  1  0  0  0  0
  3 18  1  0  0  0  0
  4 27  2  0  0  0  0
  5 14  1  0  0  0  0
  5 17  1  0  0  0  0
  5 34  1  0  0  0  0
  6 11  1  0  0  0  0
  6 16  2  0  0  0  0
  7 14  2  0  0  0  0
  7 16  1  0  0  0  0
  8 16  1  0  0  0  0
  8 19  1  0  0  0  0
  8 36  1  0  0  0  0
  9 21  1  0  0  0  0
  9 27  1  0  0  0  0
  9 45  1  0  0  0  0
 10 11  1  0  0  0  0
 10 13  1  0  0  0  0
 10 29  1  0  0  0  0
 10 30  1  0  0  0  0
 11 12  2  0  0  0  0
 12 14  1  0  0  0  0
 12 15  1  0  0  0  0
 13 18  1  0  0  0  0
 13 31  1  0  0  0  0
 13 32  1  0  0  0  0
 15 17  2  0  0  0  0
 15 33  1  0  0  0  0
 17 35  1  0  0  0  0
 19 22  2  0  0  0  0
 19 23  1  0  0  0  0
 20 25  2  0  0  0  0
 20 26  1  0  0  0  0
 20 27  1  0  0  0  0
 21 24  1  0  0  0  0
 21 37  1  0  0  0  0
 21 38  1  0  0  0  0
 22 25  1  0  0  0  0
 22 41  1  0  0  0  0
 23 26  2  0  0  0  0
 23 42  1  0  0  0  0
 24 28  1  0  0  0  0
 24 39  1  0  0  0  0
 24 40  1  0  0  0  0
 25 43  1  0  0  0  0
 26 44  1  0  0  0  0
 28 46  1  0  0  0  0
 28 47  1  0  0  0  0
 28 48  1  0  0  0  0
M  END
> <PUBCHEM_COMPOUND_CID>
49830533

> <PUBCHEM_COMPOUND_CANONICALIZED>
1

> <PUBCHEM_CACTVS_COMPLEXITY>
510

> <PUBCHEM_CACTVS_HBOND_ACCEPTOR>
7

> <PUBCHEM_CACTVS_HBOND_DONOR>
3

> <PUBCHEM_CACTVS_ROTATABLE_BOND>
7

> <PUBCHEM_CACTVS_SUBSKEYS>
AAADceB7oYAAAAAAAAAAAAAAAAAAAWAAAAA8QAAAAAAAAFgB/AAAHwAQAAAADAjBnxQ/8N7JkACoAzd3dACCgCm1AqAJ2aE4ZNiIKPLA3dGEJQholgLIyacYiQCeCAAAAAAAAAAQAAAAAAAAAAAAAAAAAA==

> <PUBCHEM_IUPAC_OPENEYE_NAME>
N-propyl-4-[[4-(3,3,3-trifluoropropyl)-7H-pyrrolo[2,3-d]pyrimidin-2-yl]amino]benzamide

> <PUBCHEM_IUPAC_CAS_NAME>
N-propyl-4-[[4-(3,3,3-trifluoropropyl)-7H-pyrrolo[2,3-d]pyrimidin-2-yl]amino]benzamide

> <PUBCHEM_IUPAC_NAME_MARKUP>
<I>N</I>-propyl-4-[[4-(3,3,3-trifluoropropyl)-7<I>H</I>-pyrrolo[2,3-d]pyrimidin-2-yl]amino]benzamide

> <PUBCHEM_IUPAC_NAME>
N-propyl-4-[[4-(3,3,3-trifluoropropyl)-7H-pyrrolo[2,3-d]pyrimidin-2-yl]amino]benzamide

> <PUBCHEM_IUPAC_SYSTEMATIC_NAME>
N-propyl-4-[[4-[3,3,3-tris(fluoranyl)propyl]-7H-pyrrolo[2,3-d]pyrimidin-2-yl]amino]benzamide

> <PUBCHEM_IUPAC_TRADITIONAL_NAME>
N-propyl-4-[[4-(3,3,3-trifluoropropyl)-7H-pyrrolo[2,3-d]pyrimidin-2-yl]amino]benzamide

> <PUBCHEM_IUPAC_INCHI>
InChI=1S/C19H20F3N5O/c1-2-10-24-17(28)12-3-5-13(6-4-12)25-18-26-15(7-9-19(20,21)22)14-8-11-23-16(14)27-18/h3-6,8,11H,2,7,9-10H2,1H3,(H,24,28)(H2,23,25,26,27)

> <PUBCHEM_IUPAC_INCHIKEY>
ZLLCVOJWNDZXIO-UHFFFAOYSA-N

> <PUBCHEM_XLOGP3_AA>
4.5

> <PUBCHEM_EXACT_MASS>
391.16199476

> <PUBCHEM_MOLECULAR_FORMULA>
C19H20F3N5O

> <PUBCHEM_MOLECULAR_WEIGHT>
391.4

> <PUBCHEM_SMILES>
CCCNC(=O)C1=CC=C(C=C1)NC2=NC(=C3C=CNC3=N2)CCC(F)(F)F

> <PUBCHEM_OPENEYE_CAN_SMILES>
CCCNC(=O)C1=CC=C(C=C1)NC2=NC(=C3C=CNC3=N2)CCC(F)(F)F

> <PUBCHEM_OPENEYE_ISO_SMILES>
CCCNC(=O)C1=CC=C(C=C1)NC2=NC(=C3C=CNC3=N2)CCC(F)(F)F

> <PUBCHEM_CACTVS_TPSA>
82.7

> <PUBCHEM_MONOISOTOPIC_WEIGHT>
391.16199476

> <PUBCHEM_TOTAL_CHARGE>
0

> <PUBCHEM_HEAVY_ATOM_COUNT>
28

> <PUBCHEM_ATOM_DEF_STEREO_COUNT>
0

> <PUBCHEM_ATOM_UDEF_STEREO_COUNT>
0

> <PUBCHEM_BOND_DEF_STEREO_COUNT>
0

> <PUBCHEM_BOND_UDEF_STEREO_COUNT>
0

> <PUBCHEM_ISOTOPIC_ATOM_COUNT>
0

> <PUBCHEM_COMPONENT_COUNT>
1

> <PUBCHEM_CACTVS_TAUTO_COUNT>
-1

> <PUBCHEM_COORDINATE_TYPE>
1
5
255

> <PUBCHEM_BONDANNOTATIONS>
11  12  8
12  14  8
12  15  8
15  17  8
19  22  8
19  23  8
20  25  8
20  26  8
22  25  8
23  26  8
5  14  8
5  17  8
6  11  8
6  16  8
7  14  8
7  16  8

$$$$
