49830499
  -OEChem-03202503082D

 24 26  0     0  0  0  0  0  0999 V2000
    2.0570    1.6960    0.0000 S   0  0  0  0  0  0  0  0  0  0  0  0
    4.9889   -2.6470    0.0000 O   0  0  0  0  0  0  0  0  0  0  0  0
    5.2619   -0.8918    0.0000 N   0  0  0  0  0  0  0  0  0  0  0  0
    3.7320   -0.3918    0.0000 C   0  0  0  0  0  0  0  0  0  0  0  0
    4.6783   -0.0871    0.0000 C   0  0  0  0  0  0  0  0  0  0  0  0
    3.7320   -1.3918    0.0000 C   0  0  0  0  0  0  0  0  0  0  0  0
    2.8660    0.1082    0.0000 C   0  0  0  0  0  0  0  0  0  0  0  0
    4.6783   -1.6965    0.0000 C   0  0  0  0  0  0  0  0  0  0  0  0
    2.8660   -1.8918    0.0000 C   0  0  0  0  0  0  0  0  0  0  0  0
    2.8660    1.1082    0.0000 C   0  0  0  0  0  0  0  0  0  0  0  0
    2.0000   -0.3918    0.0000 C   0  0  0  0  0  0  0  0  0  0  0  0
    2.0000   -1.3918    0.0000 C   0  0  0  0  0  0  0  0  0  0  0  0
    3.6750    1.6960    0.0000 C   0  0  0  0  0  0  0  0  0  0  0  0
    3.3660    2.6470    0.0000 C   0  0  0  0  0  0  0  0  0  0  0  0
    2.3660    2.6470    0.0000 C   0  0  0  0  0  0  0  0  0  0  0  0
    5.2156    0.2222    0.0000 H   0  0  0  0  0  0  0  0  0  0  0  0
    4.4272    0.4798    0.0000 H   0  0  0  0  0  0  0  0  0  0  0  0
    5.8819   -0.8918    0.0000 H   0  0  0  0  0  0  0  0  0  0  0  0
    2.8660   -2.5118    0.0000 H   0  0  0  0  0  0  0  0  0  0  0  0
    1.4631   -0.0818    0.0000 H   0  0  0  0  0  0  0  0  0  0  0  0
    1.4631   -1.7018    0.0000 H   0  0  0  0  0  0  0  0  0  0  0  0
    4.2647    1.5044    0.0000 H   0  0  0  0  0  0  0  0  0  0  0  0
    3.7304    3.1486    0.0000 H   0  0  0  0  0  0  0  0  0  0  0  0
    2.0016    3.1486    0.0000 H   0  0  0  0  0  0  0  0  0  0  0  0
  1 10  1  0  0  0  0
  1 15  1  0  0  0  0
  2  8  2  0  0  0  0
  3  5  1  0  0  0  0
  3  8  1  0  0  0  0
  3 18  1  0  0  0  0
  4  5  1  0  0  0  0
  4  6  1  0  0  0  0
  4  7  2  0  0  0  0
  5 16  1  0  0  0  0
  5 17  1  0  0  0  0
  6  8  1  0  0  0  0
  6  9  2  0  0  0  0
  7 10  1  0  0  0  0
  7 11  1  0  0  0  0
  9 12  1  0  0  0  0
  9 19  1  0  0  0  0
 10 13  2  0  0  0  0
 11 12  2  0  0  0  0
 11 20  1  0  0  0  0
 12 21  1  0  0  0  0
 13 14  1  0  0  0  0
 13 22  1  0  0  0  0
 14 15  2  0  0  0  0
 14 23  1  0  0  0  0
 15 24  1  0  0  0  0
M  END
> <PUBCHEM_COMPOUND_CID>
49830499

> <PUBCHEM_COMPOUND_CANONICALIZED>
1

> <PUBCHEM_CACTVS_COMPLEXITY>
268

> <PUBCHEM_CACTVS_HBOND_ACCEPTOR>
2

> <PUBCHEM_CACTVS_HBOND_DONOR>
1

> <PUBCHEM_CACTVS_ROTATABLE_BOND>
1

> <PUBCHEM_CACTVS_SUBSKEYS>
AAADccByIABAAAAAAAAAAAAAAAAAAWJAAAAwAAAAAAAAAFgBwAAAHgQQAAAADADF2ASwAYLAAAiMAiFSEACDAIAkCBBIiJkIBMgIIDKglRGEIQhghgCoiYcciMCOgAACAAAQAAAAAAQAACAAAAAAAAAAAA==

> <PUBCHEM_IUPAC_OPENEYE_NAME>
4-(2-thienyl)isoindolin-1-one

> <PUBCHEM_IUPAC_CAS_NAME>
4-thiophen-2-yl-2,3-dihydroisoindol-1-one

> <PUBCHEM_IUPAC_NAME_MARKUP>
4-thiophen-2-yl-2,3-dihydroisoindol-1-one

> <PUBCHEM_IUPAC_NAME>
4-thiophen-2-yl-2,3-dihydroisoindol-1-one

> <PUBCHEM_IUPAC_SYSTEMATIC_NAME>
4-thiophen-2-yl-2,3-dihydroisoindol-1-one

> <PUBCHEM_IUPAC_TRADITIONAL_NAME>
4-(2-thienyl)isoindolin-1-one

> <PUBCHEM_IUPAC_INCHI>
InChI=1S/C12H9NOS/c14-12-9-4-1-3-8(10(9)7-13-12)11-5-2-6-15-11/h1-6H,7H2,(H,13,14)

> <PUBCHEM_IUPAC_INCHIKEY>
GHHHKQJZQNKCCH-UHFFFAOYSA-N

> <PUBCHEM_XLOGP3_AA>
2.1

> <PUBCHEM_EXACT_MASS>
215.04048508

> <PUBCHEM_MOLECULAR_FORMULA>
C12H9NOS

> <PUBCHEM_MOLECULAR_WEIGHT>
215.27

> <PUBCHEM_SMILES>
C1C2=C(C=CC=C2C(=O)N1)C3=CC=CS3

> <PUBCHEM_OPENEYE_CAN_SMILES>
C1C2=C(C=CC=C2C(=O)N1)C3=CC=CS3

> <PUBCHEM_OPENEYE_ISO_SMILES>
C1C2=C(C=CC=C2C(=O)N1)C3=CC=CS3

> <PUBCHEM_CACTVS_TPSA>
57.3

> <PUBCHEM_MONOISOTOPIC_WEIGHT>
215.04048508

> <PUBCHEM_TOTAL_CHARGE>
0

> <PUBCHEM_HEAVY_ATOM_COUNT>
15

> <PUBCHEM_ATOM_DEF_STEREO_COUNT>
0

> <PUBCHEM_ATOM_UDEF_STEREO_COUNT>
0

> <PUBCHEM_BOND_DEF_STEREO_COUNT>
0

> <PUBCHEM_BOND_UDEF_STEREO_COUNT>
0

> <PUBCHEM_ISOTOPIC_ATOM_COUNT>
0

> <PUBCHEM_COMPONENT_COUNT>
1

> <PUBCHEM_CACTVS_TAUTO_COUNT>
-1

> <PUBCHEM_COORDINATE_TYPE>
1
5
255

> <PUBCHEM_BONDANNOTATIONS>
1  10  8
1  15  8
10  13  8
11  12  8
13  14  8
14  15  8
4  6  8
4  7  8
6  9  8
7  11  8
9  12  8

$$$$
