5328149
  -OEChem-03202507042D

 71 74  0     0  0  0  0  0  0999 V2000
    2.7320    1.2010    0.0000 Cl  0  0  0  0  0  0  0  0  0  0  0  0
    5.7320    2.9330    0.0000 Cl  0  0  0  0  0  0  0  0  0  0  0  0
    4.7320   -1.7990    0.0000 O   0  0  0  0  0  0  0  0  0  0  0  0
   12.5923   -0.3365    0.0000 N   0  0  0  0  0  0  0  0  0  0  0  0
   14.3205   -1.3432    0.0000 N   0  0  0  0  0  0  0  0  0  0  0  0
    9.1282   -0.3232    0.0000 N   0  0  0  0  0  0  0  0  0  0  0  0
    3.0000   -1.7990    0.0000 N   0  0  0  0  0  0  0  0  0  0  0  0
    7.3580   -0.3337    0.0000 N   0  0  0  0  0  0  0  0  0  0  0  0
    8.2641    1.2218    0.0000 N   0  0  0  0  0  0  0  0  0  0  0  0
    3.8660   -0.2990    0.0000 N   0  0  0  0  0  0  0  0  0  0  0  0
    5.5981   -0.2990    0.0000 N   0  0  0  0  0  0  0  0  0  0  0  0
   12.5884   -1.3365    0.0000 C   0  0  0  0  0  0  0  0  0  0  0  0
   13.4602    0.1601    0.0000 C   0  0  0  0  0  0  0  0  0  0  0  0
   13.4525   -1.8399    0.0000 C   0  0  0  0  0  0  0  0  0  0  0  0
   14.3243   -0.3432    0.0000 C   0  0  0  0  0  0  0  0  0  0  0  0
   11.7282    0.1668    0.0000 C   0  0  0  0  0  0  0  0  0  0  0  0
   10.8602   -0.3299    0.0000 C   0  0  0  0  0  0  0  0  0  0  0  0
   15.1846   -1.8465    0.0000 C   0  0  0  0  0  0  0  0  0  0  0  0
    9.9962    0.1735    0.0000 C   0  0  0  0  0  0  0  0  0  0  0  0
    3.0000   -2.7990    0.0000 C   0  0  0  0  0  0  0  0  0  0  0  0
    8.2641    0.1801    0.0000 C   0  0  0  0  0  0  0  0  0  0  0  0
    3.0000   -3.7990    0.0000 C   0  0  0  0  0  0  0  0  0  0  0  0
    2.0000   -2.7990    0.0000 C   0  0  0  0  0  0  0  0  0  0  0  0
    4.0000   -2.7990    0.0000 C   0  0  0  0  0  0  0  0  0  0  0  0
    6.4641    0.2010    0.0000 C   0  0  0  0  0  0  0  0  0  0  0  0
    6.4641    1.2010    0.0000 C   0  0  0  0  0  0  0  0  0  0  0  0
    4.7320    1.2010    0.0000 C   0  0  0  0  0  0  0  0  0  0  0  0
    4.7320    0.2010    0.0000 C   0  0  0  0  0  0  0  0  0  0  0  0
    3.8660   -1.2990    0.0000 C   0  0  0  0  0  0  0  0  0  0  0  0
    5.5981    1.7010    0.0000 C   0  0  0  0  0  0  0  0  0  0  0  0
    7.3580    1.7356    0.0000 C   0  0  0  0  0  0  0  0  0  0  0  0
    4.2320    2.0670    0.0000 C   0  0  0  0  0  0  0  0  0  0  0  0
    3.2321    2.0671    0.0000 C   0  0  0  0  0  0  0  0  0  0  0  0
    4.7320    2.9330    0.0000 C   0  0  0  0  0  0  0  0  0  0  0  0
    2.7320    2.9330    0.0000 C   0  0  0  0  0  0  0  0  0  0  0  0
    4.2320    3.7990    0.0000 C   0  0  0  0  0  0  0  0  0  0  0  0
    3.2320    3.7990    0.0000 C   0  0  0  0  0  0  0  0  0  0  0  0
   11.9783   -1.2265    0.0000 H   0  0  0  0  0  0  0  0  0  0  0  0
   12.3741   -1.9183    0.0000 H   0  0  0  0  0  0  0  0  0  0  0  0
   13.8606    0.6335    0.0000 H   0  0  0  0  0  0  0  0  0  0  0  0
   13.0635    0.6366    0.0000 H   0  0  0  0  0  0  0  0  0  0  0  0
   13.0522   -2.3133    0.0000 H   0  0  0  0  0  0  0  0  0  0  0  0
   13.8492   -2.3164    0.0000 H   0  0  0  0  0  0  0  0  0  0  0  0
   14.9345   -0.4532    0.0000 H   0  0  0  0  0  0  0  0  0  0  0  0
   14.5386    0.2386    0.0000 H   0  0  0  0  0  0  0  0  0  0  0  0
   12.1285    0.6402    0.0000 H   0  0  0  0  0  0  0  0  0  0  0  0
   11.3315    0.6433    0.0000 H   0  0  0  0  0  0  0  0  0  0  0  0
   10.4599   -0.8033    0.0000 H   0  0  0  0  0  0  0  0  0  0  0  0
   11.2569   -0.8063    0.0000 H   0  0  0  0  0  0  0  0  0  0  0  0
   14.8725   -2.3823    0.0000 H   0  0  0  0  0  0  0  0  0  0  0  0
   15.7203   -2.1586    0.0000 H   0  0  0  0  0  0  0  0  0  0  0  0
   15.4966   -1.3108    0.0000 H   0  0  0  0  0  0  0  0  0  0  0  0
   10.3965    0.6469    0.0000 H   0  0  0  0  0  0  0  0  0  0  0  0
    9.5994    0.6500    0.0000 H   0  0  0  0  0  0  0  0  0  0  0  0
    9.1258   -0.9432    0.0000 H   0  0  0  0  0  0  0  0  0  0  0  0
    2.3800   -3.7990    0.0000 H   0  0  0  0  0  0  0  0  0  0  0  0
    3.0000   -4.4190    0.0000 H   0  0  0  0  0  0  0  0  0  0  0  0
    3.6200   -3.7990    0.0000 H   0  0  0  0  0  0  0  0  0  0  0  0
    2.0000   -2.1790    0.0000 H   0  0  0  0  0  0  0  0  0  0  0  0
    1.3800   -2.7990    0.0000 H   0  0  0  0  0  0  0  0  0  0  0  0
    2.0000   -3.4190    0.0000 H   0  0  0  0  0  0  0  0  0  0  0  0
    4.0000   -3.4190    0.0000 H   0  0  0  0  0  0  0  0  0  0  0  0
    4.6200   -2.7990    0.0000 H   0  0  0  0  0  0  0  0  0  0  0  0
    4.0000   -2.1790    0.0000 H   0  0  0  0  0  0  0  0  0  0  0  0
    2.4631   -1.4890    0.0000 H   0  0  0  0  0  0  0  0  0  0  0  0
    5.5981    2.3210    0.0000 H   0  0  0  0  0  0  0  0  0  0  0  0
    3.3291    0.0110    0.0000 H   0  0  0  0  0  0  0  0  0  0  0  0
    7.3509    2.3556    0.0000 H   0  0  0  0  0  0  0  0  0  0  0  0
    2.1120    2.9330    0.0000 H   0  0  0  0  0  0  0  0  0  0  0  0
    4.5420    4.3360    0.0000 H   0  0  0  0  0  0  0  0  0  0  0  0
    2.9220    4.3360    0.0000 H   0  0  0  0  0  0  0  0  0  0  0  0
  1 33  1  0  0  0  0
  2 34  1  0  0  0  0
  3 29  2  0  0  0  0
  4 12  1  0  0  0  0
  4 13  1  0  0  0  0
  4 16  1  0  0  0  0
  5 14  1  0  0  0  0
  5 15  1  0  0  0  0
  5 18  1  0  0  0  0
  6 19  1  0  0  0  0
  6 21  1  0  0  0  0
  6 55  1  0  0  0  0
  7 20  1  0  0  0  0
  7 29  1  0  0  0  0
  7 65  1  0  0  0  0
  8 21  2  0  0  0  0
  8 25  1  0  0  0  0
  9 21  1  0  0  0  0
  9 31  2  0  0  0  0
 10 28  1  0  0  0  0
 10 29  1  0  0  0  0
 10 67  1  0  0  0  0
 11 25  2  0  0  0  0
 11 28  1  0  0  0  0
 12 14  1  0  0  0  0
 12 38  1  0  0  0  0
 12 39  1  0  0  0  0
 13 15  1  0  0  0  0
 13 40  1  0  0  0  0
 13 41  1  0  0  0  0
 14 42  1  0  0  0  0
 14 43  1  0  0  0  0
 15 44  1  0  0  0  0
 15 45  1  0  0  0  0
 16 17  1  0  0  0  0
 16 46  1  0  0  0  0
 16 47  1  0  0  0  0
 17 19  1  0  0  0  0
 17 48  1  0  0  0  0
 17 49  1  0  0  0  0
 18 50  1  0  0  0  0
 18 51  1  0  0  0  0
 18 52  1  0  0  0  0
 19 53  1  0  0  0  0
 19 54  1  0  0  0  0
 20 22  1  0  0  0  0
 20 23  1  0  0  0  0
 20 24  1  0  0  0  0
 22 56  1  0  0  0  0
 22 57  1  0  0  0  0
 22 58  1  0  0  0  0
 23 59  1  0  0  0  0
 23 60  1  0  0  0  0
 23 61  1  0  0  0  0
 24 62  1  0  0  0  0
 24 63  1  0  0  0  0
 24 64  1  0  0  0  0
 25 26  1  0  0  0  0
 26 30  2  0  0  0  0
 26 31  1  0  0  0  0
 27 28  2  0  0  0  0
 27 30  1  0  0  0  0
 27 32  1  0  0  0  0
 30 66  1  0  0  0  0
 31 68  1  0  0  0  0
 32 33  2  0  0  0  0
 32 34  1  0  0  0  0
 33 35  1  0  0  0  0
 34 36  2  0  0  0  0
 35 37  2  0  0  0  0
 35 69  1  0  0  0  0
 36 37  1  0  0  0  0
 36 70  1  0  0  0  0
 37 71  1  0  0  0  0
M  END
> <PUBCHEM_COMPOUND_CID>
5328149

> <PUBCHEM_COMPOUND_CANONICALIZED>
1

> <PUBCHEM_CACTVS_COMPLEXITY>
722

> <PUBCHEM_CACTVS_HBOND_ACCEPTOR>
7

> <PUBCHEM_CACTVS_HBOND_DONOR>
3

> <PUBCHEM_CACTVS_ROTATABLE_BOND>
8

> <PUBCHEM_CACTVS_SUBSKEYS>
AAADcfB74AAGAAAAAAAAAAAAAAAAAAAAAAA8WLEAAAAAAACx/AAAHgIQAAAADIrBGyQ/sN/IEACoAjJndACCgCkxBaAJ2KAoRpiIaOLB29GUJAholQLIyCcQgMAOgAAAAACBAAAAAAAAAQIAAAAAAAAAAA==

> <PUBCHEM_IUPAC_OPENEYE_NAME>
1-tert-butyl-3-[6-(2,6-dichlorophenyl)-2-[3-(4-methylpiperazin-1-yl)propylamino]pyrido[2,3-d]pyrimidin-7-yl]urea

> <PUBCHEM_IUPAC_CAS_NAME>
1-tert-butyl-3-[6-(2,6-dichlorophenyl)-2-[3-(4-methyl-1-piperazinyl)propylamino]-7-pyrido[2,3-d]pyrimidinyl]urea

> <PUBCHEM_IUPAC_NAME_MARKUP>
1-<I>tert</I>-butyl-3-[6-(2,6-dichlorophenyl)-2-[3-(4-methylpiperazin-1-yl)propylamino]pyrido[2,3-d]pyrimidin-7-yl]urea

> <PUBCHEM_IUPAC_NAME>
1-tert-butyl-3-[6-(2,6-dichlorophenyl)-2-[3-(4-methylpiperazin-1-yl)propylamino]pyrido[2,3-d]pyrimidin-7-yl]urea

> <PUBCHEM_IUPAC_SYSTEMATIC_NAME>
1-[6-[2,6-bis(chloranyl)phenyl]-2-[3-(4-methylpiperazin-1-yl)propylamino]pyrido[2,3-d]pyrimidin-7-yl]-3-tert-butyl-urea

> <PUBCHEM_IUPAC_TRADITIONAL_NAME>
1-tert-butyl-3-[6-(2,6-dichlorophenyl)-2-[3-(4-methylpiperazino)propylamino]pyrido[2,3-d]pyrimidin-7-yl]urea

> <PUBCHEM_IUPAC_INCHI>
InChI=1S/C26H34Cl2N8O/c1-26(2,3)34-25(37)33-23-18(21-19(27)7-5-8-20(21)28)15-17-16-30-24(32-22(17)31-23)29-9-6-10-36-13-11-35(4)12-14-36/h5,7-8,15-16H,6,9-14H2,1-4H3,(H3,29,30,31,32,33,34,37)

> <PUBCHEM_IUPAC_INCHIKEY>
PAZDFSJAERQBCY-UHFFFAOYSA-N

> <PUBCHEM_XLOGP3_AA>
4.5

> <PUBCHEM_EXACT_MASS>
544.2232631

> <PUBCHEM_MOLECULAR_FORMULA>
C26H34Cl2N8O

> <PUBCHEM_MOLECULAR_WEIGHT>
545.5

> <PUBCHEM_SMILES>
CC(C)(C)NC(=O)NC1=C(C=C2C=NC(=NC2=N1)NCCCN3CCN(CC3)C)C4=C(C=CC=C4Cl)Cl

> <PUBCHEM_OPENEYE_CAN_SMILES>
CC(C)(C)NC(=O)NC1=C(C=C2C=NC(=NC2=N1)NCCCN3CCN(CC3)C)C4=C(C=CC=C4Cl)Cl

> <PUBCHEM_OPENEYE_ISO_SMILES>
CC(C)(C)NC(=O)NC1=C(C=C2C=NC(=NC2=N1)NCCCN3CCN(CC3)C)C4=C(C=CC=C4Cl)Cl

> <PUBCHEM_CACTVS_TPSA>
98.3

> <PUBCHEM_MONOISOTOPIC_WEIGHT>
544.2232631

> <PUBCHEM_TOTAL_CHARGE>
0

> <PUBCHEM_HEAVY_ATOM_COUNT>
37

> <PUBCHEM_ATOM_DEF_STEREO_COUNT>
0

> <PUBCHEM_ATOM_UDEF_STEREO_COUNT>
0

> <PUBCHEM_BOND_DEF_STEREO_COUNT>
0

> <PUBCHEM_BOND_UDEF_STEREO_COUNT>
0

> <PUBCHEM_ISOTOPIC_ATOM_COUNT>
0

> <PUBCHEM_COMPONENT_COUNT>
1

> <PUBCHEM_CACTVS_TAUTO_COUNT>
-1

> <PUBCHEM_COORDINATE_TYPE>
1
5
255

> <PUBCHEM_BONDANNOTATIONS>
11  25  8
11  28  8
25  26  8
26  30  8
26  31  8
27  28  8
27  30  8
32  33  8
32  34  8
33  35  8
34  36  8
35  37  8
36  37  8
8  21  8
8  25  8
9  21  8
9  31  8

$$$$
