9952773
  -OEChem-03202505482D

 50 53  0     0  0  0  0  0  0999 V2000
    5.5211    1.9571    0.0000 S   0  0  0  0  0  0  0  0  0  0  0  0
    5.4641   -3.1307    0.0000 O   0  0  0  0  0  0  0  0  0  0  0  0
    6.8301    2.9081    0.0000 N   0  0  0  0  0  0  0  0  0  0  0  0
    4.5981   -1.6307    0.0000 N   0  0  0  0  0  0  0  0  0  0  0  0
    6.3301   -1.6307    0.0000 N   0  0  0  0  0  0  0  0  0  0  0  0
    7.1391    1.9571    0.0000 C   0  0  0  0  0  0  0  0  0  0  0  0
    6.3301    1.3693    0.0000 C   0  0  0  0  0  0  0  0  0  0  0  0
    8.0902    1.6481    0.0000 C   0  0  0  0  0  0  0  0  0  0  0  0
    6.3301    0.3693    0.0000 C   0  0  0  0  0  0  0  0  0  0  0  0
    5.8301    2.9081    0.0000 C   0  0  0  0  0  0  0  0  0  0  0  0
    5.2423    3.7172    0.0000 C   0  0  0  0  0  0  0  0  0  0  0  0
    8.2981    0.6699    0.0000 C   0  0  0  0  0  0  0  0  0  0  0  0
    8.8334    2.3172    0.0000 C   0  0  0  0  0  0  0  0  0  0  0  0
    9.2492    0.3609    0.0000 C   0  0  0  0  0  0  0  0  0  0  0  0
    5.4641   -0.1307    0.0000 C   0  0  0  0  0  0  0  0  0  0  0  0
    7.1962   -0.1307    0.0000 C   0  0  0  0  0  0  0  0  0  0  0  0
    5.4641   -1.1307    0.0000 C   0  0  0  0  0  0  0  0  0  0  0  0
    9.7844    2.0082    0.0000 C   0  0  0  0  0  0  0  0  0  0  0  0
    9.9923    1.0300    0.0000 C   0  0  0  0  0  0  0  0  0  0  0  0
    5.6491    4.6307    0.0000 C   0  0  0  0  0  0  0  0  0  0  0  0
    9.4571   -0.6172    0.0000 C   0  0  0  0  0  0  0  0  0  0  0  0
    7.1962   -1.1307    0.0000 C   0  0  0  0  0  0  0  0  0  0  0  0
    4.5981   -2.6307    0.0000 C   0  0  0  0  0  0  0  0  0  0  0  0
    3.7320   -3.1307    0.0000 C   0  0  0  0  0  0  0  0  0  0  0  0
    2.8660   -2.6307    0.0000 C   0  0  0  0  0  0  0  0  0  0  0  0
    3.7320   -4.1307    0.0000 C   0  0  0  0  0  0  0  0  0  0  0  0
    2.0000   -3.1307    0.0000 C   0  0  0  0  0  0  0  0  0  0  0  0
    2.8660   -4.6307    0.0000 C   0  0  0  0  0  0  0  0  0  0  0  0
    2.0000   -4.1307    0.0000 C   0  0  0  0  0  0  0  0  0  0  0  0
    4.7283    4.0639    0.0000 H   0  0  0  0  0  0  0  0  0  0  0  0
    4.8116    3.2712    0.0000 H   0  0  0  0  0  0  0  0  0  0  0  0
    7.8374    0.2551    0.0000 H   0  0  0  0  0  0  0  0  0  0  0  0
    8.7044    2.9236    0.0000 H   0  0  0  0  0  0  0  0  0  0  0  0
    4.9272    0.1793    0.0000 H   0  0  0  0  0  0  0  0  0  0  0  0
    7.7331    0.1793    0.0000 H   0  0  0  0  0  0  0  0  0  0  0  0
   10.2452    2.4230    0.0000 H   0  0  0  0  0  0  0  0  0  0  0  0
   10.5820    0.8384    0.0000 H   0  0  0  0  0  0  0  0  0  0  0  0
    6.2155    4.3785    0.0000 H   0  0  0  0  0  0  0  0  0  0  0  0
    5.9013    5.1971    0.0000 H   0  0  0  0  0  0  0  0  0  0  0  0
    5.0827    4.8829    0.0000 H   0  0  0  0  0  0  0  0  0  0  0  0
    8.8506   -0.7462    0.0000 H   0  0  0  0  0  0  0  0  0  0  0  0
    9.5860   -1.2237    0.0000 H   0  0  0  0  0  0  0  0  0  0  0  0
   10.0635   -0.4883    0.0000 H   0  0  0  0  0  0  0  0  0  0  0  0
    7.7331   -1.4407    0.0000 H   0  0  0  0  0  0  0  0  0  0  0  0
    4.0611   -1.3207    0.0000 H   0  0  0  0  0  0  0  0  0  0  0  0
    2.8660   -2.0107    0.0000 H   0  0  0  0  0  0  0  0  0  0  0  0
    4.2690   -4.4407    0.0000 H   0  0  0  0  0  0  0  0  0  0  0  0
    1.4631   -2.8207    0.0000 H   0  0  0  0  0  0  0  0  0  0  0  0
    2.8660   -5.2507    0.0000 H   0  0  0  0  0  0  0  0  0  0  0  0
    1.4631   -4.4407    0.0000 H   0  0  0  0  0  0  0  0  0  0  0  0
  1  7  1  0  0  0  0
  1 10  1  0  0  0  0
  2 23  2  0  0  0  0
  3  6  1  0  0  0  0
  3 10  2  0  0  0  0
  4 17  1  0  0  0  0
  4 23  1  0  0  0  0
  4 45  1  0  0  0  0
  5 17  2  0  0  0  0
  5 22  1  0  0  0  0
  6  7  2  0  0  0  0
  6  8  1  0  0  0  0
  7  9  1  0  0  0  0
  8 12  1  0  0  0  0
  8 13  2  0  0  0  0
  9 15  2  0  0  0  0
  9 16  1  0  0  0  0
 10 11  1  0  0  0  0
 11 20  1  0  0  0  0
 11 30  1  0  0  0  0
 11 31  1  0  0  0  0
 12 14  2  0  0  0  0
 12 32  1  0  0  0  0
 13 18  1  0  0  0  0
 13 33  1  0  0  0  0
 14 19  1  0  0  0  0
 14 21  1  0  0  0  0
 15 17  1  0  0  0  0
 15 34  1  0  0  0  0
 16 22  2  0  0  0  0
 16 35  1  0  0  0  0
 18 19  2  0  0  0  0
 18 36  1  0  0  0  0
 19 37  1  0  0  0  0
 20 38  1  0  0  0  0
 20 39  1  0  0  0  0
 20 40  1  0  0  0  0
 21 41  1  0  0  0  0
 21 42  1  0  0  0  0
 21 43  1  0  0  0  0
 22 44  1  0  0  0  0
 23 24  1  0  0  0  0
 24 25  2  0  0  0  0
 24 26  1  0  0  0  0
 25 27  1  0  0  0  0
 25 46  1  0  0  0  0
 26 28  2  0  0  0  0
 26 47  1  0  0  0  0
 27 29  2  0  0  0  0
 27 48  1  0  0  0  0
 28 29  1  0  0  0  0
 28 49  1  0  0  0  0
 29 50  1  0  0  0  0
M  END
> <PUBCHEM_COMPOUND_CID>
9952773

> <PUBCHEM_COMPOUND_CANONICALIZED>
1

> <PUBCHEM_CACTVS_COMPLEXITY>
538

> <PUBCHEM_CACTVS_HBOND_ACCEPTOR>
4

> <PUBCHEM_CACTVS_HBOND_DONOR>
1

> <PUBCHEM_CACTVS_ROTATABLE_BOND>
5

> <PUBCHEM_CACTVS_SUBSKEYS>
AAADceB7IABAAAAAAAAAAAAAAAAAAWAAAAA8YIAAAAAAAAAB9AAAHgQQAAAADAjB3gQ/sZLIEAisAzd3dACC8Kl1CjgJ2DU4ZNiIIPLgnZGEIQholQLoyacYiMCOAAACAAAAAAAAAAQAAAAAAAAAAAAAAA==

> <PUBCHEM_IUPAC_OPENEYE_NAME>
N-[4-[2-ethyl-4-(m-tolyl)thiazol-5-yl]-2-pyridyl]benzamide

> <PUBCHEM_IUPAC_CAS_NAME>
N-[4-[2-ethyl-4-(3-methylphenyl)-5-thiazolyl]-2-pyridinyl]benzamide

> <PUBCHEM_IUPAC_NAME_MARKUP>
<I>N</I>-[4-[2-ethyl-4-(3-methylphenyl)-1,3-thiazol-5-yl]pyridin-2-yl]benzamide

> <PUBCHEM_IUPAC_NAME>
N-[4-[2-ethyl-4-(3-methylphenyl)-1,3-thiazol-5-yl]pyridin-2-yl]benzamide

> <PUBCHEM_IUPAC_SYSTEMATIC_NAME>
N-[4-[2-ethyl-4-(3-methylphenyl)-1,3-thiazol-5-yl]pyridin-2-yl]benzamide

> <PUBCHEM_IUPAC_TRADITIONAL_NAME>
N-[4-[2-ethyl-4-(m-tolyl)thiazol-5-yl]-2-pyridyl]benzamide

> <PUBCHEM_IUPAC_INCHI>
InChI=1S/C24H21N3OS/c1-3-21-27-22(18-11-7-8-16(2)14-18)23(29-21)19-12-13-25-20(15-19)26-24(28)17-9-5-4-6-10-17/h4-15H,3H2,1-2H3,(H,25,26,28)

> <PUBCHEM_IUPAC_INCHIKEY>
HEKAIDKUDLCBRU-UHFFFAOYSA-N

> <PUBCHEM_XLOGP3_AA>
5.6

> <PUBCHEM_EXACT_MASS>
399.14053348

> <PUBCHEM_MOLECULAR_FORMULA>
C24H21N3OS

> <PUBCHEM_MOLECULAR_WEIGHT>
399.5

> <PUBCHEM_SMILES>
CCC1=NC(=C(S1)C2=CC(=NC=C2)NC(=O)C3=CC=CC=C3)C4=CC=CC(=C4)C

> <PUBCHEM_OPENEYE_CAN_SMILES>
CCC1=NC(=C(S1)C2=CC(=NC=C2)NC(=O)C3=CC=CC=C3)C4=CC=CC(=C4)C

> <PUBCHEM_OPENEYE_ISO_SMILES>
CCC1=NC(=C(S1)C2=CC(=NC=C2)NC(=O)C3=CC=CC=C3)C4=CC=CC(=C4)C

> <PUBCHEM_CACTVS_TPSA>
83.1

> <PUBCHEM_MONOISOTOPIC_WEIGHT>
399.14053348

> <PUBCHEM_TOTAL_CHARGE>
0

> <PUBCHEM_HEAVY_ATOM_COUNT>
29

> <PUBCHEM_ATOM_DEF_STEREO_COUNT>
0

> <PUBCHEM_ATOM_UDEF_STEREO_COUNT>
0

> <PUBCHEM_BOND_DEF_STEREO_COUNT>
0

> <PUBCHEM_BOND_UDEF_STEREO_COUNT>
0

> <PUBCHEM_ISOTOPIC_ATOM_COUNT>
0

> <PUBCHEM_COMPONENT_COUNT>
1

> <PUBCHEM_CACTVS_TAUTO_COUNT>
-1

> <PUBCHEM_COORDINATE_TYPE>
1
5
255

> <PUBCHEM_BONDANNOTATIONS>
1  10  8
1  7  8
12  14  8
13  18  8
14  19  8
15  17  8
16  22  8
18  19  8
24  25  8
24  26  8
25  27  8
26  28  8
27  29  8
28  29  8
3  10  8
3  6  8
5  17  8
5  22  8
6  7  8
8  12  8
8  13  8
9  15  8
9  16  8

$$$$
