14654669
  -OEChem-03202506502D

 71 70  0     0  0  0  0  0  0999 V2000
   12.6002    8.8285    0.0000 Br  0  5  0  0  0  0  0  0  0  0  0  0
    7.4651   12.5369    0.0000 O   0  0  0  0  0  0  0  0  0  0  0  0
    9.1972   15.5369    0.0000 N   0  3  0  0  0  0  0  0  0  0  0  0
    4.0010    6.5369    0.0000 C   0  0  0  0  0  0  0  0  0  0  0  0
    4.8671    7.0369    0.0000 C   0  0  0  0  0  0  0  0  0  0  0  0
    4.0010    5.5369    0.0000 C   0  0  0  0  0  0  0  0  0  0  0  0
    4.8671    8.0369    0.0000 C   0  0  0  0  0  0  0  0  0  0  0  0
    3.1350    5.0369    0.0000 C   0  0  0  0  0  0  0  0  0  0  0  0
    5.7331    8.5369    0.0000 C   0  0  0  0  0  0  0  0  0  0  0  0
    3.1350    4.0369    0.0000 C   0  0  0  0  0  0  0  0  0  0  0  0
    5.7331    9.5369    0.0000 C   0  0  0  0  0  0  0  0  0  0  0  0
    2.2690    3.5369    0.0000 C   0  0  0  0  0  0  0  0  0  0  0  0
    6.5991   10.0369    0.0000 C   0  0  0  0  0  0  0  0  0  0  0  0
    2.2690    2.5369    0.0000 C   0  0  0  0  0  0  0  0  0  0  0  0
    6.5991   11.0369    0.0000 C   0  0  0  0  0  0  0  0  0  0  0  0
    1.4030    2.0369    0.0000 C   0  0  0  0  0  0  0  0  0  0  0  0
    1.4030    1.0369    0.0000 C   0  0  0  0  0  0  0  0  0  0  0  0
    7.4651   11.5369    0.0000 C   0  0  0  0  0  0  0  0  0  0  0  0
    0.5369    0.5369    0.0000 C   0  0  0  0  0  0  0  0  0  0  0  0
    8.3312   13.0369    0.0000 C   0  0  0  0  0  0  0  0  0  0  0  0
    8.3312   14.0369    0.0000 C   0  0  0  0  0  0  0  0  0  0  0  0
    9.1972   14.5369    0.0000 C   0  0  0  0  0  0  0  0  0  0  0  0
    8.3312   16.0369    0.0000 C   0  0  0  0  0  0  0  0  0  0  0  0
   10.0632   16.0369    0.0000 C   0  0  0  0  0  0  0  0  0  0  0  0
    8.3312   17.0369    0.0000 C   0  0  0  0  0  0  0  0  0  0  0  0
   10.0632   17.0369    0.0000 C   0  0  0  0  0  0  0  0  0  0  0  0
    9.1972   17.5369    0.0000 C   0  0  0  0  0  0  0  0  0  0  0  0
    3.7890    7.1195    0.0000 H   0  0  0  0  0  0  0  0  0  0  0  0
    3.3905    6.4293    0.0000 H   0  0  0  0  0  0  0  0  0  0  0  0
    5.0791    6.4543    0.0000 H   0  0  0  0  0  0  0  0  0  0  0  0
    5.4776    7.1446    0.0000 H   0  0  0  0  0  0  0  0  0  0  0  0
    4.2131    4.9543    0.0000 H   0  0  0  0  0  0  0  0  0  0  0  0
    4.6116    5.6446    0.0000 H   0  0  0  0  0  0  0  0  0  0  0  0
    4.6550    8.6195    0.0000 H   0  0  0  0  0  0  0  0  0  0  0  0
    4.2565    7.9293    0.0000 H   0  0  0  0  0  0  0  0  0  0  0  0
    2.9230    5.6195    0.0000 H   0  0  0  0  0  0  0  0  0  0  0  0
    2.5244    4.9293    0.0000 H   0  0  0  0  0  0  0  0  0  0  0  0
    5.9451    7.9543    0.0000 H   0  0  0  0  0  0  0  0  0  0  0  0
    6.3437    8.6446    0.0000 H   0  0  0  0  0  0  0  0  0  0  0  0
    3.3471    3.4543    0.0000 H   0  0  0  0  0  0  0  0  0  0  0  0
    3.7456    4.1446    0.0000 H   0  0  0  0  0  0  0  0  0  0  0  0
    5.5210   10.1195    0.0000 H   0  0  0  0  0  0  0  0  0  0  0  0
    5.1225    9.4293    0.0000 H   0  0  0  0  0  0  0  0  0  0  0  0
    2.0569    4.1196    0.0000 H   0  0  0  0  0  0  0  0  0  0  0  0
    1.6584    3.4293    0.0000 H   0  0  0  0  0  0  0  0  0  0  0  0
    6.8112    9.4543    0.0000 H   0  0  0  0  0  0  0  0  0  0  0  0
    7.2097   10.1446    0.0000 H   0  0  0  0  0  0  0  0  0  0  0  0
    2.4810    1.9543    0.0000 H   0  0  0  0  0  0  0  0  0  0  0  0
    2.8796    2.6446    0.0000 H   0  0  0  0  0  0  0  0  0  0  0  0
    6.3871   11.6195    0.0000 H   0  0  0  0  0  0  0  0  0  0  0  0
    5.9885   10.9293    0.0000 H   0  0  0  0  0  0  0  0  0  0  0  0
    1.1909    2.6196    0.0000 H   0  0  0  0  0  0  0  0  0  0  0  0
    0.7924    1.9293    0.0000 H   0  0  0  0  0  0  0  0  0  0  0  0
    1.6150    0.4543    0.0000 H   0  0  0  0  0  0  0  0  0  0  0  0
    2.0135    1.1446    0.0000 H   0  0  0  0  0  0  0  0  0  0  0  0
    7.6772   10.9543    0.0000 H   0  0  0  0  0  0  0  0  0  0  0  0
    8.0757   11.6446    0.0000 H   0  0  0  0  0  0  0  0  0  0  0  0
    0.2269    1.0739    0.0000 H   0  0  0  0  0  0  0  0  0  0  0  0
    0.0000    0.2269    0.0000 H   0  0  0  0  0  0  0  0  0  0  0  0
    0.8469    0.0000    0.0000 H   0  0  0  0  0  0  0  0  0  0  0  0
    8.5432   12.4543    0.0000 H   0  0  0  0  0  0  0  0  0  0  0  0
    8.9417   13.1446    0.0000 H   0  0  0  0  0  0  0  0  0  0  0  0
    8.1191   14.6195    0.0000 H   0  0  0  0  0  0  0  0  0  0  0  0
    7.7206   13.9293    0.0000 H   0  0  0  0  0  0  0  0  0  0  0  0
    9.4092   13.9543    0.0000 H   0  0  0  0  0  0  0  0  0  0  0  0
    9.8078   14.6446    0.0000 H   0  0  0  0  0  0  0  0  0  0  0  0
    7.7942   15.7269    0.0000 H   0  0  0  0  0  0  0  0  0  0  0  0
   10.6002   15.7269    0.0000 H   0  0  0  0  0  0  0  0  0  0  0  0
    7.7942   17.3469    0.0000 H   0  0  0  0  0  0  0  0  0  0  0  0
   10.6002   17.3469    0.0000 H   0  0  0  0  0  0  0  0  0  0  0  0
    9.1972   18.1569    0.0000 H   0  0  0  0  0  0  0  0  0  0  0  0
  2 18  1  0  0  0  0
  2 20  1  0  0  0  0
  3 22  1  0  0  0  0
  3 23  2  0  0  0  0
  3 24  1  0  0  0  0
  4  5  1  0  0  0  0
  4  6  1  0  0  0  0
  4 28  1  0  0  0  0
  4 29  1  0  0  0  0
  5  7  1  0  0  0  0
  5 30  1  0  0  0  0
  5 31  1  0  0  0  0
  6  8  1  0  0  0  0
  6 32  1  0  0  0  0
  6 33  1  0  0  0  0
  7  9  1  0  0  0  0
  7 34  1  0  0  0  0
  7 35  1  0  0  0  0
  8 10  1  0  0  0  0
  8 36  1  0  0  0  0
  8 37  1  0  0  0  0
  9 11  1  0  0  0  0
  9 38  1  0  0  0  0
  9 39  1  0  0  0  0
 10 12  1  0  0  0  0
 10 40  1  0  0  0  0
 10 41  1  0  0  0  0
 11 13  1  0  0  0  0
 11 42  1  0  0  0  0
 11 43  1  0  0  0  0
 12 14  1  0  0  0  0
 12 44  1  0  0  0  0
 12 45  1  0  0  0  0
 13 15  1  0  0  0  0
 13 46  1  0  0  0  0
 13 47  1  0  0  0  0
 14 16  1  0  0  0  0
 14 48  1  0  0  0  0
 14 49  1  0  0  0  0
 15 18  1  0  0  0  0
 15 50  1  0  0  0  0
 15 51  1  0  0  0  0
 16 17  1  0  0  0  0
 16 52  1  0  0  0  0
 16 53  1  0  0  0  0
 17 19  1  0  0  0  0
 17 54  1  0  0  0  0
 17 55  1  0  0  0  0
 18 56  1  0  0  0  0
 18 57  1  0  0  0  0
 19 58  1  0  0  0  0
 19 59  1  0  0  0  0
 19 60  1  0  0  0  0
 20 21  1  0  0  0  0
 20 61  1  0  0  0  0
 20 62  1  0  0  0  0
 21 22  1  0  0  0  0
 21 63  1  0  0  0  0
 21 64  1  0  0  0  0
 22 65  1  0  0  0  0
 22 66  1  0  0  0  0
 23 25  1  0  0  0  0
 23 67  1  0  0  0  0
 24 26  2  0  0  0  0
 24 68  1  0  0  0  0
 25 27  2  0  0  0  0
 25 69  1  0  0  0  0
 26 27  1  0  0  0  0
 26 70  1  0  0  0  0
 27 71  1  0  0  0  0
M  CHG  2   1  -1   3   1
M  END
> <PUBCHEM_COMPOUND_CID>
14654669

> <PUBCHEM_COMPOUND_CANONICALIZED>
1

> <PUBCHEM_CACTVS_COMPLEXITY>
263

> <PUBCHEM_CACTVS_HBOND_ACCEPTOR>
2

> <PUBCHEM_CACTVS_HBOND_DONOR>
0

> <PUBCHEM_CACTVS_ROTATABLE_BOND>
19

> <PUBCHEM_CACTVS_SUBSKEYS>
AAADcfB6IAAAEAAAAAAAAAAAAAAAAAAAAAAsAAAAAAAAAAABgAAAHgAAAAAACADhkgY+gJMMFACgADBnRACCgCAxAiAI2CA4ZJgIIOLAkZGGIAhmgADIyAeQwKAAAAAAAAAAAAAAAAAAAAAAAAAAAAAAAA==

> <PUBCHEM_IUPAC_OPENEYE_NAME>
1-(3-hexadecoxypropyl)pyridin-1-ium;bromide

> <PUBCHEM_IUPAC_CAS_NAME>
1-(3-hexadecoxypropyl)pyridin-1-ium;bromide

> <PUBCHEM_IUPAC_NAME_MARKUP>
1-(3-hexadecoxypropyl)pyridin-1-ium;bromide

> <PUBCHEM_IUPAC_NAME>
1-(3-hexadecoxypropyl)pyridin-1-ium;bromide

> <PUBCHEM_IUPAC_SYSTEMATIC_NAME>
1-(3-hexadecoxypropyl)pyridin-1-ium;bromide

> <PUBCHEM_IUPAC_TRADITIONAL_NAME>
1-(3-cetyloxypropyl)pyridin-1-ium;bromide

> <PUBCHEM_IUPAC_INCHI>
InChI=1S/C24H44NO.BrH/c1-2-3-4-5-6-7-8-9-10-11-12-13-14-18-23-26-24-19-22-25-20-16-15-17-21-25;/h15-17,20-21H,2-14,18-19,22-24H2,1H3;1H/q+1;/p-1

> <PUBCHEM_IUPAC_INCHIKEY>
XEKLFBGHYHGWDB-UHFFFAOYSA-M

> <PUBCHEM_EXACT_MASS>
441.26063

> <PUBCHEM_MOLECULAR_FORMULA>
C24H44BrNO

> <PUBCHEM_MOLECULAR_WEIGHT>
442.5

> <PUBCHEM_SMILES>
CCCCCCCCCCCCCCCCOCCC[N+]1=CC=CC=C1.[Br-]

> <PUBCHEM_OPENEYE_CAN_SMILES>
CCCCCCCCCCCCCCCCOCCC[N+]1=CC=CC=C1.[Br-]

> <PUBCHEM_OPENEYE_ISO_SMILES>
CCCCCCCCCCCCCCCCOCCC[N+]1=CC=CC=C1.[Br-]

> <PUBCHEM_CACTVS_TPSA>
13.1

> <PUBCHEM_MONOISOTOPIC_WEIGHT>
441.26063

> <PUBCHEM_TOTAL_CHARGE>
0

> <PUBCHEM_HEAVY_ATOM_COUNT>
27

> <PUBCHEM_ATOM_DEF_STEREO_COUNT>
0

> <PUBCHEM_ATOM_UDEF_STEREO_COUNT>
0

> <PUBCHEM_BOND_DEF_STEREO_COUNT>
0

> <PUBCHEM_BOND_UDEF_STEREO_COUNT>
0

> <PUBCHEM_ISOTOPIC_ATOM_COUNT>
0

> <PUBCHEM_COMPONENT_COUNT>
2

> <PUBCHEM_CACTVS_TAUTO_COUNT>
-1

> <PUBCHEM_COORDINATE_TYPE>
1
5
255

> <PUBCHEM_BONDANNOTATIONS>
23  25  8
24  26  8
25  27  8
26  27  8
3  23  8
3  24  8

$$$$
