11604142
  -OEChem-03202500342D

 60 64  0     0  0  0  0  0  0999 V2000
    2.8660   -6.7215    0.0000 O   0  0  0  0  0  0  0  0  0  0  0  0
    2.8660   -4.7215    0.0000 N   0  0  0  0  0  0  0  0  0  0  0  0
    2.8660    2.2785    0.0000 N   0  0  0  0  0  0  0  0  0  0  0  0
    3.8366    3.7730    0.0000 N   0  0  0  0  0  0  0  0  0  0  0  0
    4.6456    2.3717    0.0000 N   0  0  0  0  0  0  0  0  0  0  0  0
    4.8147    3.9809    0.0000 N   0  0  0  0  0  0  0  0  0  0  0  0
    6.3092    3.0103    0.0000 N   0  0  0  0  0  0  0  0  0  0  0  0
    6.2160    4.9990    0.0000 N   0  0  0  0  0  0  0  0  0  0  0  0
    2.8660   -3.7215    0.0000 C   0  0  0  0  0  0  0  0  0  0  0  0
    2.8660   -1.7215    0.0000 C   0  0  0  0  0  0  0  0  0  0  0  0
    3.7320   -3.2215    0.0000 C   0  0  0  0  0  0  0  0  0  0  0  0
    2.0000   -3.2215    0.0000 C   0  0  0  0  0  0  0  0  0  0  0  0
    3.7320   -2.2215    0.0000 C   0  0  0  0  0  0  0  0  0  0  0  0
    2.0000   -2.2215    0.0000 C   0  0  0  0  0  0  0  0  0  0  0  0
    3.7320   -5.2215    0.0000 C   0  0  0  0  0  0  0  0  0  0  0  0
    2.0000   -5.2215    0.0000 C   0  0  0  0  0  0  0  0  0  0  0  0
    2.8660   -0.7215    0.0000 C   0  0  0  0  0  0  0  0  0  0  0  0
    3.7320   -6.2215    0.0000 C   0  0  0  0  0  0  0  0  0  0  0  0
    2.0000   -6.2215    0.0000 C   0  0  0  0  0  0  0  0  0  0  0  0
    3.7320   -0.2215    0.0000 C   0  0  0  0  0  0  0  0  0  0  0  0
    2.0000   -0.2215    0.0000 C   0  0  0  0  0  0  0  0  0  0  0  0
    3.7320    0.7785    0.0000 C   0  0  0  0  0  0  0  0  0  0  0  0
    2.0000    0.7785    0.0000 C   0  0  0  0  0  0  0  0  0  0  0  0
    2.8660    1.2785    0.0000 C   0  0  0  0  0  0  0  0  0  0  0  0
    3.7320    2.7785    0.0000 C   0  0  0  0  0  0  0  0  0  0  0  0
    5.3147    3.1149    0.0000 C   0  0  0  0  0  0  0  0  0  0  0  0
    5.2215    4.8944    0.0000 C   0  0  0  0  0  0  0  0  0  0  0  0
    4.6337    5.7035    0.0000 C   0  0  0  0  0  0  0  0  0  0  0  0
    5.0404    6.6170    0.0000 C   0  0  0  0  0  0  0  0  0  0  0  0
    6.6227    5.9125    0.0000 C   0  0  0  0  0  0  0  0  0  0  0  0
    6.0349    6.7215    0.0000 C   0  0  0  0  0  0  0  0  0  0  0  0
    3.4030   -4.0315    0.0000 H   0  0  0  0  0  0  0  0  0  0  0  0
    3.4030   -1.4115    0.0000 H   0  0  0  0  0  0  0  0  0  0  0  0
    3.9441   -3.8041    0.0000 H   0  0  0  0  0  0  0  0  0  0  0  0
    4.3426   -3.1139    0.0000 H   0  0  0  0  0  0  0  0  0  0  0  0
    1.3894   -3.1139    0.0000 H   0  0  0  0  0  0  0  0  0  0  0  0
    1.7880   -3.8041    0.0000 H   0  0  0  0  0  0  0  0  0  0  0  0
    4.3426   -2.3292    0.0000 H   0  0  0  0  0  0  0  0  0  0  0  0
    3.9441   -1.6389    0.0000 H   0  0  0  0  0  0  0  0  0  0  0  0
    1.7880   -1.6389    0.0000 H   0  0  0  0  0  0  0  0  0  0  0  0
    1.3894   -2.3292    0.0000 H   0  0  0  0  0  0  0  0  0  0  0  0
    4.3426   -5.3292    0.0000 H   0  0  0  0  0  0  0  0  0  0  0  0
    3.9441   -4.6389    0.0000 H   0  0  0  0  0  0  0  0  0  0  0  0
    1.7880   -4.6389    0.0000 H   0  0  0  0  0  0  0  0  0  0  0  0
    1.3894   -5.3292    0.0000 H   0  0  0  0  0  0  0  0  0  0  0  0
    3.9441   -6.8041    0.0000 H   0  0  0  0  0  0  0  0  0  0  0  0
    4.3426   -6.1139    0.0000 H   0  0  0  0  0  0  0  0  0  0  0  0
    1.3894   -6.1139    0.0000 H   0  0  0  0  0  0  0  0  0  0  0  0
    1.7880   -6.8041    0.0000 H   0  0  0  0  0  0  0  0  0  0  0  0
    4.2690   -0.5315    0.0000 H   0  0  0  0  0  0  0  0  0  0  0  0
    1.4631   -0.5315    0.0000 H   0  0  0  0  0  0  0  0  0  0  0  0
    4.2690    1.0885    0.0000 H   0  0  0  0  0  0  0  0  0  0  0  0
    1.4631    1.0885    0.0000 H   0  0  0  0  0  0  0  0  0  0  0  0
    2.3291    2.5885    0.0000 H   0  0  0  0  0  0  0  0  0  0  0  0
    6.5614    2.4440    0.0000 H   0  0  0  0  0  0  0  0  0  0  0  0
    6.6737    3.5119    0.0000 H   0  0  0  0  0  0  0  0  0  0  0  0
    4.0171    5.6386    0.0000 H   0  0  0  0  0  0  0  0  0  0  0  0
    4.6760    7.1186    0.0000 H   0  0  0  0  0  0  0  0  0  0  0  0
    7.2393    5.9773    0.0000 H   0  0  0  0  0  0  0  0  0  0  0  0
    6.2871    7.2879    0.0000 H   0  0  0  0  0  0  0  0  0  0  0  0
  1 18  1  0  0  0  0
  1 19  1  0  0  0  0
  2  9  1  0  0  0  0
  2 15  1  0  0  0  0
  2 16  1  0  0  0  0
  3 24  1  0  0  0  0
  3 25  1  0  0  0  0
  3 54  1  0  0  0  0
  4  6  1  0  0  0  0
  4 25  2  0  0  0  0
  5 25  1  0  0  0  0
  5 26  2  0  0  0  0
  6 26  1  0  0  0  0
  6 27  1  0  0  0  0
  7 26  1  0  0  0  0
  7 55  1  0  0  0  0
  7 56  1  0  0  0  0
  8 27  1  0  0  0  0
  8 30  2  0  0  0  0
  9 11  1  0  0  0  0
  9 12  1  0  0  0  0
  9 32  1  0  0  0  0
 10 13  1  0  0  0  0
 10 14  1  0  0  0  0
 10 17  1  0  0  0  0
 10 33  1  0  0  0  0
 11 13  1  0  0  0  0
 11 34  1  0  0  0  0
 11 35  1  0  0  0  0
 12 14  1  0  0  0  0
 12 36  1  0  0  0  0
 12 37  1  0  0  0  0
 13 38  1  0  0  0  0
 13 39  1  0  0  0  0
 14 40  1  0  0  0  0
 14 41  1  0  0  0  0
 15 18  1  0  0  0  0
 15 42  1  0  0  0  0
 15 43  1  0  0  0  0
 16 19  1  0  0  0  0
 16 44  1  0  0  0  0
 16 45  1  0  0  0  0
 17 20  2  0  0  0  0
 17 21  1  0  0  0  0
 18 46  1  0  0  0  0
 18 47  1  0  0  0  0
 19 48  1  0  0  0  0
 19 49  1  0  0  0  0
 20 22  1  0  0  0  0
 20 50  1  0  0  0  0
 21 23  2  0  0  0  0
 21 51  1  0  0  0  0
 22 24  2  0  0  0  0
 22 52  1  0  0  0  0
 23 24  1  0  0  0  0
 23 53  1  0  0  0  0
 27 28  2  0  0  0  0
 28 29  1  0  0  0  0
 28 57  1  0  0  0  0
 29 31  2  0  0  0  0
 29 58  1  0  0  0  0
 30 31  1  0  0  0  0
 30 59  1  0  0  0  0
 31 60  1  0  0  0  0
M  END
> <PUBCHEM_COMPOUND_CID>
11604142

> <PUBCHEM_COMPOUND_CANONICALIZED>
1

> <PUBCHEM_CACTVS_COMPLEXITY>
544

> <PUBCHEM_CACTVS_HBOND_ACCEPTOR>
7

> <PUBCHEM_CACTVS_HBOND_DONOR>
2

> <PUBCHEM_CACTVS_ROTATABLE_BOND>
5

> <PUBCHEM_CACTVS_SUBSKEYS>
AAADceB7oAAAAAAAAAAAAAAAAAAAAWAAAAA8eIEAAAAAAAAB8AAAHgAYAAAADSjhmgY98JfIFACiAjZnZACShCsxAqAd2CA4ZJiKKOLAmZGHIAh4kALYyCcQgMAOiAAAAAAAAAAQAAAAAAAAAAAAAAAAAA==

> <PUBCHEM_IUPAC_OPENEYE_NAME>
N3-[4-(4-morpholinocyclohexyl)phenyl]-1-(2-pyridyl)-1,2,4-triazole-3,5-diamine

> <PUBCHEM_IUPAC_CAS_NAME>
N3-[4-[4-(4-morpholinyl)cyclohexyl]phenyl]-1-(2-pyridinyl)-1,2,4-triazole-3,5-diamine

> <PUBCHEM_IUPAC_NAME_MARKUP>
3-<I>N</I>-[4-(4-morpholin-4-ylcyclohexyl)phenyl]-1-pyridin-2-yl-1,2,4-triazole-3,5-diamine

> <PUBCHEM_IUPAC_NAME>
3-N-[4-(4-morpholin-4-ylcyclohexyl)phenyl]-1-pyridin-2-yl-1,2,4-triazole-3,5-diamine

> <PUBCHEM_IUPAC_SYSTEMATIC_NAME>
N3-[4-(4-morpholin-4-ylcyclohexyl)phenyl]-1-pyridin-2-yl-1,2,4-triazole-3,5-diamine

> <PUBCHEM_IUPAC_TRADITIONAL_NAME>
[5-amino-1-(2-pyridyl)-1,2,4-triazol-3-yl]-[4-(4-morpholinocyclohexyl)phenyl]amine

> <PUBCHEM_IUPAC_INCHI>
InChI=1S/C23H29N7O/c24-22-27-23(28-30(22)21-3-1-2-12-25-21)26-19-8-4-17(5-9-19)18-6-10-20(11-7-18)29-13-15-31-16-14-29/h1-5,8-9,12,18,20H,6-7,10-11,13-16H2,(H3,24,26,27,28)

> <PUBCHEM_IUPAC_INCHIKEY>
OYUDNKFIGXAIRZ-UHFFFAOYSA-N

> <PUBCHEM_XLOGP3_AA>
3.4

> <PUBCHEM_EXACT_MASS>
419.24335857

> <PUBCHEM_MOLECULAR_FORMULA>
C23H29N7O

> <PUBCHEM_MOLECULAR_WEIGHT>
419.5

> <PUBCHEM_SMILES>
C1CC(CCC1C2=CC=C(C=C2)NC3=NN(C(=N3)N)C4=CC=CC=N4)N5CCOCC5

> <PUBCHEM_OPENEYE_CAN_SMILES>
C1CC(CCC1C2=CC=C(C=C2)NC3=NN(C(=N3)N)C4=CC=CC=N4)N5CCOCC5

> <PUBCHEM_OPENEYE_ISO_SMILES>
C1CC(CCC1C2=CC=C(C=C2)NC3=NN(C(=N3)N)C4=CC=CC=N4)N5CCOCC5

> <PUBCHEM_CACTVS_TPSA>
94.1

> <PUBCHEM_MONOISOTOPIC_WEIGHT>
419.24335857

> <PUBCHEM_TOTAL_CHARGE>
0

> <PUBCHEM_HEAVY_ATOM_COUNT>
31

> <PUBCHEM_ATOM_DEF_STEREO_COUNT>
0

> <PUBCHEM_ATOM_UDEF_STEREO_COUNT>
0

> <PUBCHEM_BOND_DEF_STEREO_COUNT>
0

> <PUBCHEM_BOND_UDEF_STEREO_COUNT>
0

> <PUBCHEM_ISOTOPIC_ATOM_COUNT>
0

> <PUBCHEM_COMPONENT_COUNT>
1

> <PUBCHEM_CACTVS_TAUTO_COUNT>
-1

> <PUBCHEM_COORDINATE_TYPE>
1
5
255

> <PUBCHEM_BONDANNOTATIONS>
17  20  8
17  21  8
20  22  8
21  23  8
22  24  8
23  24  8
27  28  8
28  29  8
29  31  8
30  31  8
4  25  8
4  6  8
5  25  8
5  26  8
6  26  8
8  27  8
8  30  8

$$$$
