24905290
  -OEChem-03192523332D

 32 34  0     0  0  0  0  0  0999 V2000
    7.2566    1.6924    0.0000 O   0  0  0  0  0  0  0  0  0  0  0  0
    4.6783   -2.2305    0.0000 N   0  0  0  0  0  0  0  0  0  0  0  0
    5.2619   -1.4258    0.0000 N   0  0  0  0  0  0  0  0  0  0  0  0
    2.8660   -2.4258    0.0000 N   0  0  0  0  0  0  0  0  0  0  0  0
    2.0000   -0.9258    0.0000 N   0  0  0  0  0  0  0  0  0  0  0  0
    2.8660    0.5742    0.0000 N   0  0  0  0  0  0  0  0  0  0  0  0
    4.6783   -0.6210    0.0000 C   0  0  0  0  0  0  0  0  0  0  0  0
    3.7320   -0.9258    0.0000 C   0  0  0  0  0  0  0  0  0  0  0  0
    3.7320   -1.9258    0.0000 C   0  0  0  0  0  0  0  0  0  0  0  0
    4.9889    0.3295    0.0000 C   0  0  0  0  0  0  0  0  0  0  0  0
    2.8660   -0.4258    0.0000 C   0  0  0  0  0  0  0  0  0  0  0  0
    5.9674    0.5357    0.0000 C   0  0  0  0  0  0  0  0  0  0  0  0
    4.3211    1.0738    0.0000 C   0  0  0  0  0  0  0  0  0  0  0  0
    5.6103    2.2305    0.0000 C   0  0  0  0  0  0  0  0  0  0  0  0
    6.2781    1.4862    0.0000 C   0  0  0  0  0  0  0  0  0  0  0  0
    4.9889   -3.1810    0.0000 C   0  0  0  0  0  0  0  0  0  0  0  0
    4.6318    2.0243    0.0000 C   0  0  0  0  0  0  0  0  0  0  0  0
    2.0000   -1.9258    0.0000 C   0  0  0  0  0  0  0  0  0  0  0  0
    5.9209    3.1810    0.0000 C   0  0  0  0  0  0  0  0  0  0  0  0
    6.3815    0.0742    0.0000 H   0  0  0  0  0  0  0  0  0  0  0  0
    3.7144    0.9459    0.0000 H   0  0  0  0  0  0  0  0  0  0  0  0
    4.3996   -3.3736    0.0000 H   0  0  0  0  0  0  0  0  0  0  0  0
    5.1815   -3.7704    0.0000 H   0  0  0  0  0  0  0  0  0  0  0  0
    5.5783   -2.9884    0.0000 H   0  0  0  0  0  0  0  0  0  0  0  0
    4.2177    2.4858    0.0000 H   0  0  0  0  0  0  0  0  0  0  0  0
    1.4631   -2.2358    0.0000 H   0  0  0  0  0  0  0  0  0  0  0  0
    6.5102    2.9884    0.0000 H   0  0  0  0  0  0  0  0  0  0  0  0
    6.1135    3.7704    0.0000 H   0  0  0  0  0  0  0  0  0  0  0  0
    5.3316    3.3736    0.0000 H   0  0  0  0  0  0  0  0  0  0  0  0
    2.3291    0.8842    0.0000 H   0  0  0  0  0  0  0  0  0  0  0  0
    3.4030    0.8842    0.0000 H   0  0  0  0  0  0  0  0  0  0  0  0
    7.6707    1.2310    0.0000 H   0  0  0  0  0  0  0  0  0  0  0  0
  1 15  1  0  0  0  0
  1 32  1  0  0  0  0
  2  3  1  0  0  0  0
  2  9  1  0  0  0  0
  2 16  1  0  0  0  0
  3  7  2  0  0  0  0
  4  9  2  0  0  0  0
  4 18  1  0  0  0  0
  5 11  1  0  0  0  0
  5 18  2  0  0  0  0
  6 11  1  0  0  0  0
  6 30  1  0  0  0  0
  6 31  1  0  0  0  0
  7  8  1  0  0  0  0
  7 10  1  0  0  0  0
  8  9  1  0  0  0  0
  8 11  2  0  0  0  0
 10 12  2  0  0  0  0
 10 13  1  0  0  0  0
 12 15  1  0  0  0  0
 12 20  1  0  0  0  0
 13 17  2  0  0  0  0
 13 21  1  0  0  0  0
 14 15  2  0  0  0  0
 14 17  1  0  0  0  0
 14 19  1  0  0  0  0
 16 22  1  0  0  0  0
 16 23  1  0  0  0  0
 16 24  1  0  0  0  0
 17 25  1  0  0  0  0
 18 26  1  0  0  0  0
 19 27  1  0  0  0  0
 19 28  1  0  0  0  0
 19 29  1  0  0  0  0
M  END
> <PUBCHEM_COMPOUND_CID>
24905290

> <PUBCHEM_COMPOUND_CANONICALIZED>
1

> <PUBCHEM_CACTVS_COMPLEXITY>
328

> <PUBCHEM_CACTVS_HBOND_ACCEPTOR>
5

> <PUBCHEM_CACTVS_HBOND_DONOR>
2

> <PUBCHEM_CACTVS_ROTATABLE_BOND>
1

> <PUBCHEM_CACTVS_SUBSKEYS>
AAADccBzoAAAAAAAAAAAAAAAAAAAAWAAAAA8QAAAAAAAAFgB/AAAHgAYCAAADAyBnwQ3tt5IEgCiAyZjZACShCsxoKAd2CAuTJiILqLC2dOE9AhsyBNI2CewwPAOQAABAAAIAACAAAIAABAAAAAAAAAAAA==

> <PUBCHEM_IUPAC_OPENEYE_NAME>
5-(4-amino-1-methyl-pyrazolo[3,4-d]pyrimidin-3-yl)-2-methyl-phenol

> <PUBCHEM_IUPAC_CAS_NAME>
5-(4-amino-1-methyl-3-pyrazolo[3,4-d]pyrimidinyl)-2-methylphenol

> <PUBCHEM_IUPAC_NAME_MARKUP>
5-(4-amino-1-methylpyrazolo[3,4-d]pyrimidin-3-yl)-2-methylphenol

> <PUBCHEM_IUPAC_NAME>
5-(4-amino-1-methylpyrazolo[3,4-d]pyrimidin-3-yl)-2-methylphenol

> <PUBCHEM_IUPAC_SYSTEMATIC_NAME>
5-(4-azanyl-1-methyl-pyrazolo[3,4-d]pyrimidin-3-yl)-2-methyl-phenol

> <PUBCHEM_IUPAC_TRADITIONAL_NAME>
5-(4-amino-1-methyl-pyrazolo[3,4-d]pyrimidin-3-yl)-2-methyl-phenol

> <PUBCHEM_IUPAC_INCHI>
InChI=1S/C13H13N5O/c1-7-3-4-8(5-9(7)19)11-10-12(14)15-6-16-13(10)18(2)17-11/h3-6,19H,1-2H3,(H2,14,15,16)

> <PUBCHEM_IUPAC_INCHIKEY>
GRWJFKQBVQNWQW-UHFFFAOYSA-N

> <PUBCHEM_XLOGP3_AA>
1.5

> <PUBCHEM_EXACT_MASS>
255.11201006

> <PUBCHEM_MOLECULAR_FORMULA>
C13H13N5O

> <PUBCHEM_MOLECULAR_WEIGHT>
255.28

> <PUBCHEM_SMILES>
CC1=C(C=C(C=C1)C2=NN(C3=NC=NC(=C23)N)C)O

> <PUBCHEM_OPENEYE_CAN_SMILES>
CC1=C(C=C(C=C1)C2=NN(C3=NC=NC(=C23)N)C)O

> <PUBCHEM_OPENEYE_ISO_SMILES>
CC1=C(C=C(C=C1)C2=NN(C3=NC=NC(=C23)N)C)O

> <PUBCHEM_CACTVS_TPSA>
89.9

> <PUBCHEM_MONOISOTOPIC_WEIGHT>
255.11201006

> <PUBCHEM_TOTAL_CHARGE>
0

> <PUBCHEM_HEAVY_ATOM_COUNT>
19

> <PUBCHEM_ATOM_DEF_STEREO_COUNT>
0

> <PUBCHEM_ATOM_UDEF_STEREO_COUNT>
0

> <PUBCHEM_BOND_DEF_STEREO_COUNT>
0

> <PUBCHEM_BOND_UDEF_STEREO_COUNT>
0

> <PUBCHEM_ISOTOPIC_ATOM_COUNT>
0

> <PUBCHEM_COMPONENT_COUNT>
1

> <PUBCHEM_CACTVS_TAUTO_COUNT>
-1

> <PUBCHEM_COORDINATE_TYPE>
1
5
255

> <PUBCHEM_BONDANNOTATIONS>
10  12  8
10  13  8
12  15  8
13  17  8
14  15  8
14  17  8
2  3  8
2  9  8
3  7  8
4  18  8
4  9  8
5  11  8
5  18  8
7  8  8
8  11  8
8  9  8

$$$$
