49830608
  -OEChem-03202503582D

 57 60  0     0  0  0  0  0  0999 V2000
   10.2619   -0.5298    0.0000 F   0  0  0  0  0  0  0  0  0  0  0  0
    3.0000   -5.0298    0.0000 F   0  0  0  0  0  0  0  0  0  0  0  0
    2.0000   -4.0298    0.0000 F   0  0  0  0  0  0  0  0  0  0  0  0
    4.0000   -4.0298    0.0000 F   0  0  0  0  0  0  0  0  0  0  0  0
   10.8349    4.9019    0.0000 O   0  0  0  0  0  0  0  0  0  0  0  0
    3.8660   -2.5298    0.0000 O   0  0  0  0  0  0  0  0  0  0  0  0
    8.2566    2.5884    0.0000 N   0  0  0  0  0  0  0  0  0  0  0  0
    4.7320   -0.0298    0.0000 N   0  0  0  0  0  0  0  0  0  0  0  0
    6.9674    1.4317    0.0000 N   0  0  0  0  0  0  0  0  0  0  0  0
    5.6783   -1.3345    0.0000 N   0  0  0  0  0  0  0  0  0  0  0  0
    6.6103    3.1265    0.0000 N   0  0  0  0  0  0  0  0  0  0  0  0
    3.0000   -1.0298    0.0000 N   0  0  0  0  0  0  0  0  0  0  0  0
    9.5458    3.7452    0.0000 C   0  0  0  0  0  0  0  0  0  0  0  0
    8.5673    3.5390    0.0000 C   0  0  0  0  0  0  0  0  0  0  0  0
   10.5243    3.9514    0.0000 C   0  0  0  0  0  0  0  0  0  0  0  0
    9.3396    4.7237    0.0000 C   0  0  0  0  0  0  0  0  0  0  0  0
    9.7520    2.7667    0.0000 C   0  0  0  0  0  0  0  0  0  0  0  0
    5.6783    0.2750    0.0000 C   0  0  0  0  0  0  0  0  0  0  0  0
    7.2781    2.3822    0.0000 C   0  0  0  0  0  0  0  0  0  0  0  0
    6.2619   -0.5298    0.0000 C   0  0  0  0  0  0  0  0  0  0  0  0
    5.9889    1.2255    0.0000 C   0  0  0  0  0  0  0  0  0  0  0  0
    4.7320   -1.0298    0.0000 C   0  0  0  0  0  0  0  0  0  0  0  0
    7.2619   -0.5298    0.0000 C   0  0  0  0  0  0  0  0  0  0  0  0
    5.3211    1.9698    0.0000 C   0  0  0  0  0  0  0  0  0  0  0  0
    3.8660    0.4702    0.0000 C   0  0  0  0  0  0  0  0  0  0  0  0
    3.8660   -1.5298    0.0000 C   0  0  0  0  0  0  0  0  0  0  0  0
    5.6318    2.9203    0.0000 C   0  0  0  0  0  0  0  0  0  0  0  0
    3.0000   -0.0298    0.0000 C   0  0  0  0  0  0  0  0  0  0  0  0
    7.7619   -1.3958    0.0000 C   0  0  0  0  0  0  0  0  0  0  0  0
    7.7619    0.3363    0.0000 C   0  0  0  0  0  0  0  0  0  0  0  0
    8.7619   -1.3958    0.0000 C   0  0  0  0  0  0  0  0  0  0  0  0
    8.7619    0.3363    0.0000 C   0  0  0  0  0  0  0  0  0  0  0  0
    9.2619   -0.5298    0.0000 C   0  0  0  0  0  0  0  0  0  0  0  0
    3.0000   -3.0298    0.0000 C   0  0  0  0  0  0  0  0  0  0  0  0
    3.0000   -4.0298    0.0000 C   0  0  0  0  0  0  0  0  0  0  0  0
    8.5467    4.1586    0.0000 H   0  0  0  0  0  0  0  0  0  0  0  0
    7.9534    3.6263    0.0000 H   0  0  0  0  0  0  0  0  0  0  0  0
   10.5448    3.3317    0.0000 H   0  0  0  0  0  0  0  0  0  0  0  0
   11.1381    3.8640    0.0000 H   0  0  0  0  0  0  0  0  0  0  0  0
    9.9462    4.8515    0.0000 H   0  0  0  0  0  0  0  0  0  0  0  0
    9.2117    5.3304    0.0000 H   0  0  0  0  0  0  0  0  0  0  0  0
    8.7329    4.5958    0.0000 H   0  0  0  0  0  0  0  0  0  0  0  0
    9.1453    2.6388    0.0000 H   0  0  0  0  0  0  0  0  0  0  0  0
    9.8798    2.1600    0.0000 H   0  0  0  0  0  0  0  0  0  0  0  0
   10.3587    2.8945    0.0000 H   0  0  0  0  0  0  0  0  0  0  0  0
    8.6707    2.1270    0.0000 H   0  0  0  0  0  0  0  0  0  0  0  0
   11.4416    5.0298    0.0000 H   0  0  0  0  0  0  0  0  0  0  0  0
    4.7144    1.8419    0.0000 H   0  0  0  0  0  0  0  0  0  0  0  0
    3.8660    1.0902    0.0000 H   0  0  0  0  0  0  0  0  0  0  0  0
    5.2177    3.3818    0.0000 H   0  0  0  0  0  0  0  0  0  0  0  0
    2.4631    0.2802    0.0000 H   0  0  0  0  0  0  0  0  0  0  0  0
    7.4519   -1.9327    0.0000 H   0  0  0  0  0  0  0  0  0  0  0  0
    7.4519    0.8732    0.0000 H   0  0  0  0  0  0  0  0  0  0  0  0
    9.0719   -1.9327    0.0000 H   0  0  0  0  0  0  0  0  0  0  0  0
    9.0719    0.8732    0.0000 H   0  0  0  0  0  0  0  0  0  0  0  0
    2.7880   -2.4472    0.0000 H   0  0  0  0  0  0  0  0  0  0  0  0
    2.3894   -3.1374    0.0000 H   0  0  0  0  0  0  0  0  0  0  0  0
  1 33  1  0  0  0  0
  2 35  1  0  0  0  0
  3 35  1  0  0  0  0
  4 35  1  0  0  0  0
  5 15  1  0  0  0  0
  5 47  1  0  0  0  0
  6 26  1  0  0  0  0
  6 34  1  0  0  0  0
  7 14  1  0  0  0  0
  7 19  1  0  0  0  0
  7 46  1  0  0  0  0
  8 18  1  0  0  0  0
  8 22  1  0  0  0  0
  8 25  1  0  0  0  0
  9 19  1  0  0  0  0
  9 21  2  0  0  0  0
 10 20  1  0  0  0  0
 10 22  2  0  0  0  0
 11 19  2  0  0  0  0
 11 27  1  0  0  0  0
 12 26  2  0  0  0  0
 12 28  1  0  0  0  0
 13 14  1  0  0  0  0
 13 15  1  0  0  0  0
 13 16  1  0  0  0  0
 13 17  1  0  0  0  0
 14 36  1  0  0  0  0
 14 37  1  0  0  0  0
 15 38  1  0  0  0  0
 15 39  1  0  0  0  0
 16 40  1  0  0  0  0
 16 41  1  0  0  0  0
 16 42  1  0  0  0  0
 17 43  1  0  0  0  0
 17 44  1  0  0  0  0
 17 45  1  0  0  0  0
 18 20  2  0  0  0  0
 18 21  1  0  0  0  0
 20 23  1  0  0  0  0
 21 24  1  0  0  0  0
 22 26  1  0  0  0  0
 23 29  2  0  0  0  0
 23 30  1  0  0  0  0
 24 27  2  0  0  0  0
 24 48  1  0  0  0  0
 25 28  2  0  0  0  0
 25 49  1  0  0  0  0
 27 50  1  0  0  0  0
 28 51  1  0  0  0  0
 29 31  1  0  0  0  0
 29 52  1  0  0  0  0
 30 32  2  0  0  0  0
 30 53  1  0  0  0  0
 31 33  2  0  0  0  0
 31 54  1  0  0  0  0
 32 33  1  0  0  0  0
 32 55  1  0  0  0  0
 34 35  1  0  0  0  0
 34 56  1  0  0  0  0
 34 57  1  0  0  0  0
M  END
> <PUBCHEM_COMPOUND_CID>
49830608

> <PUBCHEM_COMPOUND_CANONICALIZED>
1

> <PUBCHEM_CACTVS_COMPLEXITY>
679

> <PUBCHEM_CACTVS_HBOND_ACCEPTOR>
11

> <PUBCHEM_CACTVS_HBOND_DONOR>
2

> <PUBCHEM_CACTVS_ROTATABLE_BOND>
8

> <PUBCHEM_CACTVS_SUBSKEYS>
AAADceB7scAAAAAAAAAAAAAAAAAAAWAAAAA8WIAAAAAAAFgB/AAAHwAQCAAADgjhnx4/tJ/MHgCgAzZnZASCiC0xUqAJ2KA5dJiOeOLA2dGfbAjqgALYyCcQgMAOAAAAAAAAAAAAAAAAAAAAAAAAAAAAAA==

> <PUBCHEM_IUPAC_OPENEYE_NAME>
3-[[4-[2-(4-fluorophenyl)-8-(2,2,2-trifluoroethoxy)imidazo[1,2-a]pyrazin-3-yl]pyrimidin-2-yl]amino]-2,2-dimethyl-propan-1-ol

> <PUBCHEM_IUPAC_CAS_NAME>
3-[[4-[2-(4-fluorophenyl)-8-(2,2,2-trifluoroethoxy)-3-imidazo[1,2-a]pyrazinyl]-2-pyrimidinyl]amino]-2,2-dimethyl-1-propanol

> <PUBCHEM_IUPAC_NAME_MARKUP>
3-[[4-[2-(4-fluorophenyl)-8-(2,2,2-trifluoroethoxy)imidazo[1,2-a]pyrazin-3-yl]pyrimidin-2-yl]amino]-2,2-dimethylpropan-1-ol

> <PUBCHEM_IUPAC_NAME>
3-[[4-[2-(4-fluorophenyl)-8-(2,2,2-trifluoroethoxy)imidazo[1,2-a]pyrazin-3-yl]pyrimidin-2-yl]amino]-2,2-dimethylpropan-1-ol

> <PUBCHEM_IUPAC_SYSTEMATIC_NAME>
3-[[4-[2-(4-fluorophenyl)-8-[2,2,2-tris(fluoranyl)ethoxy]imidazo[1,2-a]pyrazin-3-yl]pyrimidin-2-yl]amino]-2,2-dimethyl-propan-1-ol

> <PUBCHEM_IUPAC_TRADITIONAL_NAME>
3-[[4-[2-(4-fluorophenyl)-8-(2,2,2-trifluoroethoxy)imidazo[1,2-a]pyrazin-3-yl]pyrimidin-2-yl]amino]-2,2-dimethyl-propan-1-ol

> <PUBCHEM_IUPAC_INCHI>
InChI=1S/C23H22F4N6O2/c1-22(2,12-34)11-30-21-29-8-7-16(31-21)18-17(14-3-5-15(24)6-4-14)32-19-20(28-9-10-33(18)19)35-13-23(25,26)27/h3-10,34H,11-13H2,1-2H3,(H,29,30,31)

> <PUBCHEM_IUPAC_INCHIKEY>
HUXSWYWELGEQNC-UHFFFAOYSA-N

> <PUBCHEM_XLOGP3_AA>
5.2

> <PUBCHEM_EXACT_MASS>
490.17403661

> <PUBCHEM_MOLECULAR_FORMULA>
C23H22F4N6O2

> <PUBCHEM_MOLECULAR_WEIGHT>
490.5

> <PUBCHEM_SMILES>
CC(C)(CNC1=NC=CC(=N1)C2=C(N=C3N2C=CN=C3OCC(F)(F)F)C4=CC=C(C=C4)F)CO

> <PUBCHEM_OPENEYE_CAN_SMILES>
CC(C)(CNC1=NC=CC(=N1)C2=C(N=C3N2C=CN=C3OCC(F)(F)F)C4=CC=C(C=C4)F)CO

> <PUBCHEM_OPENEYE_ISO_SMILES>
CC(C)(CNC1=NC=CC(=N1)C2=C(N=C3N2C=CN=C3OCC(F)(F)F)C4=CC=C(C=C4)F)CO

> <PUBCHEM_CACTVS_TPSA>
97.5

> <PUBCHEM_MONOISOTOPIC_WEIGHT>
490.17403661

> <PUBCHEM_TOTAL_CHARGE>
0

> <PUBCHEM_HEAVY_ATOM_COUNT>
35

> <PUBCHEM_ATOM_DEF_STEREO_COUNT>
0

> <PUBCHEM_ATOM_UDEF_STEREO_COUNT>
0

> <PUBCHEM_BOND_DEF_STEREO_COUNT>
0

> <PUBCHEM_BOND_UDEF_STEREO_COUNT>
0

> <PUBCHEM_ISOTOPIC_ATOM_COUNT>
0

> <PUBCHEM_COMPONENT_COUNT>
1

> <PUBCHEM_CACTVS_TAUTO_COUNT>
-1

> <PUBCHEM_COORDINATE_TYPE>
1
5
255

> <PUBCHEM_BONDANNOTATIONS>
10  20  8
10  22  8
11  19  8
11  27  8
12  26  8
12  28  8
18  20  8
21  24  8
22  26  8
23  29  8
23  30  8
24  27  8
25  28  8
29  31  8
30  32  8
31  33  8
32  33  8
8  18  8
8  22  8
8  25  8
9  19  8
9  21  8

$$$$
