9825149
  -OEChem-03202502532D

 65 70  0     0  0  0  0  0  0999 V2000
    7.2566    2.9869    0.0000 O   0  0  0  0  0  0  0  0  0  0  0  0
    4.6783   -0.9360    0.0000 N   0  0  0  0  0  0  0  0  0  0  0  0
    6.7174   -4.3875    0.0000 N   0  0  0  0  0  0  0  0  0  0  0  0
    2.8660   -1.1313    0.0000 N   0  0  0  0  0  0  0  0  0  0  0  0
    2.0000    0.3687    0.0000 N   0  0  0  0  0  0  0  0  0  0  0  0
    2.8660    1.8687    0.0000 N   0  0  0  0  0  0  0  0  0  0  0  0
    5.4283   -3.2308    0.0000 C   0  0  0  0  0  0  0  0  0  0  0  0
    4.9889   -1.8866    0.0000 C   0  0  0  0  0  0  0  0  0  0  0  0
    5.8807   -2.3390    0.0000 C   0  0  0  0  0  0  0  0  0  0  0  0
    4.5365   -2.7784    0.0000 C   0  0  0  0  0  0  0  0  0  0  0  0
    5.7389   -4.1813    0.0000 C   0  0  0  0  0  0  0  0  0  0  0  0
    7.1258   -5.3004    0.0000 C   0  0  0  0  0  0  0  0  0  0  0  0
    7.4594   -3.7171    0.0000 C   0  0  0  0  0  0  0  0  0  0  0  0
    8.1201   -5.1941    0.0000 C   0  0  0  0  0  0  0  0  0  0  0  0
    8.3263   -4.2156    0.0000 C   0  0  0  0  0  0  0  0  0  0  0  0
    3.7320   -0.6313    0.0000 C   0  0  0  0  0  0  0  0  0  0  0  0
    5.2619   -0.1313    0.0000 C   0  0  0  0  0  0  0  0  0  0  0  0
    3.7320    0.3687    0.0000 C   0  0  0  0  0  0  0  0  0  0  0  0
    4.6783    0.6734    0.0000 C   0  0  0  0  0  0  0  0  0  0  0  0
    2.8660    0.8687    0.0000 C   0  0  0  0  0  0  0  0  0  0  0  0
    4.9889    1.6239    0.0000 C   0  0  0  0  0  0  0  0  0  0  0  0
    2.0000   -0.6313    0.0000 C   0  0  0  0  0  0  0  0  0  0  0  0
    5.9674    1.8302    0.0000 C   0  0  0  0  0  0  0  0  0  0  0  0
    4.3211    2.3683    0.0000 C   0  0  0  0  0  0  0  0  0  0  0  0
    6.2781    2.7807    0.0000 C   0  0  0  0  0  0  0  0  0  0  0  0
    4.6318    3.3188    0.0000 C   0  0  0  0  0  0  0  0  0  0  0  0
    5.6103    3.5250    0.0000 C   0  0  0  0  0  0  0  0  0  0  0  0
    7.5673    3.9374    0.0000 C   0  0  0  0  0  0  0  0  0  0  0  0
    8.5458    4.1436    0.0000 C   0  0  0  0  0  0  0  0  0  0  0  0
    8.8564    5.0942    0.0000 C   0  0  0  0  0  0  0  0  0  0  0  0
    9.2136    3.3993    0.0000 C   0  0  0  0  0  0  0  0  0  0  0  0
    9.8349    5.3004    0.0000 C   0  0  0  0  0  0  0  0  0  0  0  0
   10.1921    3.6056    0.0000 C   0  0  0  0  0  0  0  0  0  0  0  0
   10.5028    4.5561    0.0000 C   0  0  0  0  0  0  0  0  0  0  0  0
    6.0464   -3.2784    0.0000 H   0  0  0  0  0  0  0  0  0  0  0  0
    5.4597   -1.4831    0.0000 H   0  0  0  0  0  0  0  0  0  0  0  0
    6.4336   -2.6195    0.0000 H   0  0  0  0  0  0  0  0  0  0  0  0
    6.1612   -1.7861    0.0000 H   0  0  0  0  0  0  0  0  0  0  0  0
    3.9836   -2.4978    0.0000 H   0  0  0  0  0  0  0  0  0  0  0  0
    4.2560   -3.3313    0.0000 H   0  0  0  0  0  0  0  0  0  0  0  0
    5.1251   -4.2687    0.0000 H   0  0  0  0  0  0  0  0  0  0  0  0
    5.7184   -4.8010    0.0000 H   0  0  0  0  0  0  0  0  0  0  0  0
    6.5364   -5.4930    0.0000 H   0  0  0  0  0  0  0  0  0  0  0  0
    7.2557   -5.9066    0.0000 H   0  0  0  0  0  0  0  0  0  0  0  0
    7.8230   -3.2149    0.0000 H   0  0  0  0  0  0  0  0  0  0  0  0
    6.9980   -3.3031    0.0000 H   0  0  0  0  0  0  0  0  0  0  0  0
    8.1212   -5.8141    0.0000 H   0  0  0  0  0  0  0  0  0  0  0  0
    8.7368   -5.2579    0.0000 H   0  0  0  0  0  0  0  0  0  0  0  0
    8.9163   -4.4062    0.0000 H   0  0  0  0  0  0  0  0  0  0  0  0
    8.5775   -3.6488    0.0000 H   0  0  0  0  0  0  0  0  0  0  0  0
    5.8819   -0.1313    0.0000 H   0  0  0  0  0  0  0  0  0  0  0  0
    1.4631   -0.9413    0.0000 H   0  0  0  0  0  0  0  0  0  0  0  0
    6.3815    1.3687    0.0000 H   0  0  0  0  0  0  0  0  0  0  0  0
    3.7144    2.2404    0.0000 H   0  0  0  0  0  0  0  0  0  0  0  0
    2.3291    2.1787    0.0000 H   0  0  0  0  0  0  0  0  0  0  0  0
    3.4030    2.1787    0.0000 H   0  0  0  0  0  0  0  0  0  0  0  0
    4.2177    3.7802    0.0000 H   0  0  0  0  0  0  0  0  0  0  0  0
    5.8029    4.1143    0.0000 H   0  0  0  0  0  0  0  0  0  0  0  0
    7.5467    4.5571    0.0000 H   0  0  0  0  0  0  0  0  0  0  0  0
    6.9534    4.0248    0.0000 H   0  0  0  0  0  0  0  0  0  0  0  0
    8.4424    5.5556    0.0000 H   0  0  0  0  0  0  0  0  0  0  0  0
    9.0210    2.8100    0.0000 H   0  0  0  0  0  0  0  0  0  0  0  0
   10.0276    5.8897    0.0000 H   0  0  0  0  0  0  0  0  0  0  0  0
   10.6062    3.1441    0.0000 H   0  0  0  0  0  0  0  0  0  0  0  0
   11.1095    4.6839    0.0000 H   0  0  0  0  0  0  0  0  0  0  0  0
  1 25  1  0  0  0  0
  1 28  1  0  0  0  0
  2  8  1  0  0  0  0
  2 16  1  0  0  0  0
  2 17  1  0  0  0  0
  3 11  1  0  0  0  0
  3 12  1  0  0  0  0
  3 13  1  0  0  0  0
  4 16  2  0  0  0  0
  4 22  1  0  0  0  0
  5 20  1  0  0  0  0
  5 22  2  0  0  0  0
  6 20  1  0  0  0  0
  6 55  1  0  0  0  0
  6 56  1  0  0  0  0
  7  9  1  0  0  0  0
  7 10  1  0  0  0  0
  7 11  1  0  0  0  0
  7 35  1  0  0  0  0
  8  9  1  0  0  0  0
  8 10  1  0  0  0  0
  8 36  1  0  0  0  0
  9 37  1  0  0  0  0
  9 38  1  0  0  0  0
 10 39  1  0  0  0  0
 10 40  1  0  0  0  0
 11 41  1  0  0  0  0
 11 42  1  0  0  0  0
 12 14  1  0  0  0  0
 12 43  1  0  0  0  0
 12 44  1  0  0  0  0
 13 15  1  0  0  0  0
 13 45  1  0  0  0  0
 13 46  1  0  0  0  0
 14 15  1  0  0  0  0
 14 47  1  0  0  0  0
 14 48  1  0  0  0  0
 15 49  1  0  0  0  0
 15 50  1  0  0  0  0
 16 18  1  0  0  0  0
 17 19  2  0  0  0  0
 17 51  1  0  0  0  0
 18 19  1  0  0  0  0
 18 20  2  0  0  0  0
 19 21  1  0  0  0  0
 21 23  2  0  0  0  0
 21 24  1  0  0  0  0
 22 52  1  0  0  0  0
 23 25  1  0  0  0  0
 23 53  1  0  0  0  0
 24 26  2  0  0  0  0
 24 54  1  0  0  0  0
 25 27  2  0  0  0  0
 26 27  1  0  0  0  0
 26 57  1  0  0  0  0
 27 58  1  0  0  0  0
 28 29  1  0  0  0  0
 28 59  1  0  0  0  0
 28 60  1  0  0  0  0
 29 30  2  0  0  0  0
 29 31  1  0  0  0  0
 30 32  1  0  0  0  0
 30 61  1  0  0  0  0
 31 33  2  0  0  0  0
 31 62  1  0  0  0  0
 32 34  2  0  0  0  0
 32 63  1  0  0  0  0
 33 34  1  0  0  0  0
 33 64  1  0  0  0  0
 34 65  1  0  0  0  0
M  END
> <PUBCHEM_COMPOUND_CID>
9825149

> <PUBCHEM_COMPOUND_CANONICALIZED>
1

> <PUBCHEM_CACTVS_COMPLEXITY>
645

> <PUBCHEM_CACTVS_HBOND_ACCEPTOR>
5

> <PUBCHEM_CACTVS_HBOND_DONOR>
1

> <PUBCHEM_CACTVS_ROTATABLE_BOND>
7

> <PUBCHEM_CACTVS_SUBSKEYS>
AAADceB7oAAAAAAAAAAAAAAAAABgAWLAAAA8YIAAAAAAAFgB/AAAHgAQAAAADSzhmwY9tt9MFACgAjJnZACCiCkxIKAJ2CAuTJiMLmLE+duGPCjswBPI6CeQ0PIOgAABAAAAAAAAAAIAAAAAAAAAAAAAAA==

> <PUBCHEM_IUPAC_OPENEYE_NAME>
5-(3-benzyloxyphenyl)-7-[3-(pyrrolidin-1-ylmethyl)cyclobutyl]pyrrolo[2,3-d]pyrimidin-4-amine

> <PUBCHEM_IUPAC_CAS_NAME>
5-(3-phenylmethoxyphenyl)-7-[3-(1-pyrrolidinylmethyl)cyclobutyl]-4-pyrrolo[2,3-d]pyrimidinamine

> <PUBCHEM_IUPAC_NAME_MARKUP>
5-(3-phenylmethoxyphenyl)-7-[3-(pyrrolidin-1-ylmethyl)cyclobutyl]pyrrolo[2,3-d]pyrimidin-4-amine

> <PUBCHEM_IUPAC_NAME>
5-(3-phenylmethoxyphenyl)-7-[3-(pyrrolidin-1-ylmethyl)cyclobutyl]pyrrolo[2,3-d]pyrimidin-4-amine

> <PUBCHEM_IUPAC_SYSTEMATIC_NAME>
5-(3-phenylmethoxyphenyl)-7-[3-(pyrrolidin-1-ylmethyl)cyclobutyl]pyrrolo[2,3-d]pyrimidin-4-amine

> <PUBCHEM_IUPAC_TRADITIONAL_NAME>
[5-(3-benzoxyphenyl)-7-[3-(pyrrolidinomethyl)cyclobutyl]pyrrolo[2,3-d]pyrimidin-4-yl]amine

> <PUBCHEM_IUPAC_INCHI>
InChI=1S/C28H31N5O/c29-27-26-25(22-9-6-10-24(15-22)34-18-20-7-2-1-3-8-20)17-33(28(26)31-19-30-27)23-13-21(14-23)16-32-11-4-5-12-32/h1-3,6-10,15,17,19,21,23H,4-5,11-14,16,18H2,(H2,29,30,31)

> <PUBCHEM_IUPAC_INCHIKEY>
LSFLAQVDISHMNB-UHFFFAOYSA-N

> <PUBCHEM_XLOGP3_AA>
4.6

> <PUBCHEM_EXACT_MASS>
453.25286063

> <PUBCHEM_MOLECULAR_FORMULA>
C28H31N5O

> <PUBCHEM_MOLECULAR_WEIGHT>
453.6

> <PUBCHEM_SMILES>
C1CCN(C1)CC2CC(C2)N3C=C(C4=C(N=CN=C43)N)C5=CC(=CC=C5)OCC6=CC=CC=C6

> <PUBCHEM_OPENEYE_CAN_SMILES>
C1CCN(C1)CC2CC(C2)N3C=C(C4=C(N=CN=C43)N)C5=CC(=CC=C5)OCC6=CC=CC=C6

> <PUBCHEM_OPENEYE_ISO_SMILES>
C1CCN(C1)CC2CC(C2)N3C=C(C4=C(N=CN=C43)N)C5=CC(=CC=C5)OCC6=CC=CC=C6

> <PUBCHEM_CACTVS_TPSA>
69.2

> <PUBCHEM_MONOISOTOPIC_WEIGHT>
453.25286063

> <PUBCHEM_TOTAL_CHARGE>
0

> <PUBCHEM_HEAVY_ATOM_COUNT>
34

> <PUBCHEM_ATOM_DEF_STEREO_COUNT>
0

> <PUBCHEM_ATOM_UDEF_STEREO_COUNT>
0

> <PUBCHEM_BOND_DEF_STEREO_COUNT>
0

> <PUBCHEM_BOND_UDEF_STEREO_COUNT>
0

> <PUBCHEM_ISOTOPIC_ATOM_COUNT>
0

> <PUBCHEM_COMPONENT_COUNT>
1

> <PUBCHEM_CACTVS_TAUTO_COUNT>
-1

> <PUBCHEM_COORDINATE_TYPE>
1
5
255

> <PUBCHEM_BONDANNOTATIONS>
16  18  8
17  19  8
18  19  8
18  20  8
2  16  8
2  17  8
21  23  8
21  24  8
23  25  8
24  26  8
25  27  8
26  27  8
29  30  8
29  31  8
30  32  8
31  33  8
32  34  8
33  34  8
4  16  8
4  22  8
5  20  8
5  22  8

$$$$
