46868971
  -OEChem-03202500082D

 57 61  0     1  0  0  0  0  0999 V2000
    7.6373   -2.1191    0.0000 S   0  0  0  0  0  0  0  0  0  0  0  0
    3.4013   -3.7835    0.0000 O   0  0  0  0  0  0  0  0  0  0  0  0
    4.5768   -2.1655    0.0000 N   0  0  0  0  0  0  0  0  0  0  0  0
    6.6591   -2.3270    0.0000 N   0  0  0  0  0  0  0  0  0  0  0  0
    8.6078   -0.6246    0.0000 N   0  0  0  0  0  0  0  0  0  0  0  0
    9.4739    1.8754    0.0000 N   0  0  0  0  0  0  0  0  0  0  0  0
    7.7418    0.8754    0.0000 N   0  0  0  0  0  0  0  0  0  0  0  0
   10.4201    0.5707    0.0000 N   0  0  0  0  0  0  0  0  0  0  0  0
   11.6841    4.4380    0.0000 N   0  0  0  0  0  0  0  0  0  0  0  0
   10.7335    4.7487    0.0000 N   0  0  0  0  0  0  0  0  0  0  0  0
    4.9836   -3.0790    0.0000 C   0  0  0  0  0  0  0  0  0  0  0  0
    3.5823   -2.0610    0.0000 C   0  0  0  0  0  0  0  0  0  0  0  0
    4.3958   -3.8880    0.0000 C   0  0  1  0  0  0  0  0  0  0  0  0
    2.9945   -2.8700    0.0000 C   0  0  2  0  0  0  0  0  0  0  0  0
    5.1646   -1.3565    0.0000 C   0  0  1  0  0  0  0  0  0  0  0  0
    4.8025   -4.8016    0.0000 C   0  0  0  0  0  0  0  0  0  0  0  0
    2.0000   -2.7654    0.0000 C   0  0  0  0  0  0  0  0  0  0  0  0
    6.1591   -1.4610    0.0000 C   0  0  0  0  0  0  0  0  0  0  0  0
    4.7579   -0.4429    0.0000 C   0  0  0  0  0  0  0  0  0  0  0  0
    6.8283   -0.7179    0.0000 C   0  0  0  0  0  0  0  0  0  0  0  0
    7.7418   -1.1246    0.0000 C   0  0  0  0  0  0  0  0  0  0  0  0
    8.6078    0.3754    0.0000 C   0  0  0  0  0  0  0  0  0  0  0  0
    9.4739    0.8754    0.0000 C   0  0  0  0  0  0  0  0  0  0  0  0
   10.4201    2.1801    0.0000 C   0  0  0  0  0  0  0  0  0  0  0  0
    8.6078    2.3754    0.0000 C   0  0  0  0  0  0  0  0  0  0  0  0
    7.7418    1.8754    0.0000 C   0  0  0  0  0  0  0  0  0  0  0  0
   11.0037    1.3754    0.0000 C   0  0  0  0  0  0  0  0  0  0  0  0
   10.7307    3.1307    0.0000 C   0  0  0  0  0  0  0  0  0  0  0  0
    6.8758    2.3754    0.0000 C   0  0  0  0  0  0  0  0  0  0  0  0
   11.6823    3.4380    0.0000 C   0  0  0  0  0  0  0  0  0  0  0  0
   10.1444    3.9407    0.0000 C   0  0  0  0  0  0  0  0  0  0  0  0
    5.4142   -3.5250    0.0000 H   0  0  0  0  0  0  0  0  0  0  0  0
    5.4976   -2.7323    0.0000 H   0  0  0  0  0  0  0  0  0  0  0  0
    3.7532   -1.4650    0.0000 H   0  0  0  0  0  0  0  0  0  0  0  0
    3.0250   -1.7892    0.0000 H   0  0  0  0  0  0  0  0  0  0  0  0
    4.0314   -4.3896    0.0000 H   0  0  0  0  0  0  0  0  0  0  0  0
    2.6301   -3.3716    0.0000 H   0  0  0  0  0  0  0  0  0  0  0  0
    4.5480   -1.2917    0.0000 H   0  0  0  0  0  0  0  0  0  0  0  0
    4.2361   -5.0538    0.0000 H   0  0  0  0  0  0  0  0  0  0  0  0
    5.0547   -5.3680    0.0000 H   0  0  0  0  0  0  0  0  0  0  0  0
    5.3689   -4.5494    0.0000 H   0  0  0  0  0  0  0  0  0  0  0  0
    2.0648   -2.1488    0.0000 H   0  0  0  0  0  0  0  0  0  0  0  0
    1.3834   -2.7006    0.0000 H   0  0  0  0  0  0  0  0  0  0  0  0
    1.9352   -3.3820    0.0000 H   0  0  0  0  0  0  0  0  0  0  0  0
    5.3243   -0.1907    0.0000 H   0  0  0  0  0  0  0  0  0  0  0  0
    4.5057    0.1235    0.0000 H   0  0  0  0  0  0  0  0  0  0  0  0
    4.1915   -0.6951    0.0000 H   0  0  0  0  0  0  0  0  0  0  0  0
    6.6994   -0.1114    0.0000 H   0  0  0  0  0  0  0  0  0  0  0  0
    9.1448   -0.9346    0.0000 H   0  0  0  0  0  0  0  0  0  0  0  0
    8.6078    2.9954    0.0000 H   0  0  0  0  0  0  0  0  0  0  0  0
   11.6237    1.3754    0.0000 H   0  0  0  0  0  0  0  0  0  0  0  0
    7.1858    2.9124    0.0000 H   0  0  0  0  0  0  0  0  0  0  0  0
    6.3388    2.6854    0.0000 H   0  0  0  0  0  0  0  0  0  0  0  0
    6.5658    1.8385    0.0000 H   0  0  0  0  0  0  0  0  0  0  0  0
   12.1833    3.0727    0.0000 H   0  0  0  0  0  0  0  0  0  0  0  0
    9.5244    3.9418    0.0000 H   0  0  0  0  0  0  0  0  0  0  0  0
   12.1863    4.8016    0.0000 H   0  0  0  0  0  0  0  0  0  0  0  0
  1  4  1  0  0  0  0
  1 21  1  0  0  0  0
  2 13  1  0  0  0  0
  2 14  1  0  0  0  0
  3 11  1  0  0  0  0
  3 12  1  0  0  0  0
  3 15  1  0  0  0  0
  4 18  2  0  0  0  0
  5 21  1  0  0  0  0
  5 22  1  0  0  0  0
  5 49  1  0  0  0  0
  6 23  1  0  0  0  0
  6 24  1  0  0  0  0
  6 25  1  0  0  0  0
  7 22  2  0  0  0  0
  7 26  1  0  0  0  0
  8 23  2  0  0  0  0
  8 27  1  0  0  0  0
  9 10  1  0  0  0  0
  9 30  1  0  0  0  0
  9 57  1  0  0  0  0
 10 31  2  0  0  0  0
 11 13  1  0  0  0  0
 11 32  1  0  0  0  0
 11 33  1  0  0  0  0
 12 14  1  0  0  0  0
 12 34  1  0  0  0  0
 12 35  1  0  0  0  0
 13 16  1  1  0  0  0
 13 36  1  0  0  0  0
 14 17  1  1  0  0  0
 14 37  1  0  0  0  0
 15 18  1  0  0  0  0
 15 19  1  6  0  0  0
 15 38  1  0  0  0  0
 16 39  1  0  0  0  0
 16 40  1  0  0  0  0
 16 41  1  0  0  0  0
 17 42  1  0  0  0  0
 17 43  1  0  0  0  0
 17 44  1  0  0  0  0
 18 20  1  0  0  0  0
 19 45  1  0  0  0  0
 19 46  1  0  0  0  0
 19 47  1  0  0  0  0
 20 21  2  0  0  0  0
 20 48  1  0  0  0  0
 22 23  1  0  0  0  0
 24 27  2  0  0  0  0
 24 28  1  0  0  0  0
 25 26  2  0  0  0  0
 25 50  1  0  0  0  0
 26 29  1  0  0  0  0
 27 51  1  0  0  0  0
 28 30  2  0  0  0  0
 28 31  1  0  0  0  0
 29 52  1  0  0  0  0
 29 53  1  0  0  0  0
 29 54  1  0  0  0  0
 30 55  1  0  0  0  0
 31 56  1  0  0  0  0
M  END
> <PUBCHEM_COMPOUND_CID>
46868971

> <PUBCHEM_COMPOUND_CANONICALIZED>
1

> <PUBCHEM_CACTVS_COMPLEXITY>
606

> <PUBCHEM_CACTVS_HBOND_ACCEPTOR>
8

> <PUBCHEM_CACTVS_HBOND_DONOR>
2

> <PUBCHEM_CACTVS_ROTATABLE_BOND>
5

> <PUBCHEM_CACTVS_SUBSKEYS>
AAADceB74ABAAAAAAAAAAAAAAAAAAWLFgAAsWAAAAAAAAFgB/gAAHgQYQAAADDzh3wY/sZ/vHACmAzZnZACThD0xkqlR+bg4dJiKaMJA2cGXhAxomALYSCIQAAAIAAAAAAAAAAAAAAAAAAAAAAAAAAAAAA==

> <PUBCHEM_IUPAC_OPENEYE_NAME>
3-[(1R)-1-[(2S,6R)-2,6-dimethylmorpholin-4-yl]ethyl]-N-[6-methyl-3-(1H-pyrazol-4-yl)imidazo[1,2-a]pyrazin-8-yl]isothiazol-5-amine

> <PUBCHEM_IUPAC_CAS_NAME>
3-[(1R)-1-[(2S,6R)-2,6-dimethyl-4-morpholinyl]ethyl]-N-[6-methyl-3-(1H-pyrazol-4-yl)-8-imidazo[1,2-a]pyrazinyl]-5-isothiazolamine

> <PUBCHEM_IUPAC_NAME_MARKUP>
3-[(1<I>R</I>)-1-[(2<I>S</I>,6<I>R</I>)-2,6-dimethylmorpholin-4-yl]ethyl]-<I>N</I>-[6-methyl-3-(1<I>H</I>-pyrazol-4-yl)imidazo[1,2-a]pyrazin-8-yl]-1,2-thiazol-5-amine

> <PUBCHEM_IUPAC_NAME>
3-[(1R)-1-[(2S,6R)-2,6-dimethylmorpholin-4-yl]ethyl]-N-[6-methyl-3-(1H-pyrazol-4-yl)imidazo[1,2-a]pyrazin-8-yl]-1,2-thiazol-5-amine

> <PUBCHEM_IUPAC_SYSTEMATIC_NAME>
3-[(1R)-1-[(2S,6R)-2,6-dimethylmorpholin-4-yl]ethyl]-N-[6-methyl-3-(1H-pyrazol-4-yl)imidazo[1,2-a]pyrazin-8-yl]-1,2-thiazol-5-amine

> <PUBCHEM_IUPAC_TRADITIONAL_NAME>
[3-[(1R)-1-[(2S,6R)-2,6-dimethylmorpholino]ethyl]isothiazol-5-yl]-[6-methyl-3-(1H-pyrazol-4-yl)imidazo[1,2-a]pyrazin-8-yl]amine

> <PUBCHEM_IUPAC_INCHI>
InChI=1S/C21H26N8OS/c1-12-9-29-18(16-6-23-24-7-16)8-22-21(29)20(25-12)26-19-5-17(27-31-19)15(4)28-10-13(2)30-14(3)11-28/h5-9,13-15H,10-11H2,1-4H3,(H,23,24)(H,25,26)/t13-,14+,15-/m1/s1

> <PUBCHEM_IUPAC_INCHIKEY>
QBWKPGNFQQJGFY-QLFBSQMISA-N

> <PUBCHEM_XLOGP3_AA>
3.1

> <PUBCHEM_EXACT_MASS>
438.19502866

> <PUBCHEM_MOLECULAR_FORMULA>
C21H26N8OS

> <PUBCHEM_MOLECULAR_WEIGHT>
438.6

> <PUBCHEM_SMILES>
C[C@@H]1CN(C[C@@H](O1)C)[C@H](C)C2=NSC(=C2)NC3=NC(=CN4C3=NC=C4C5=CNN=C5)C

> <PUBCHEM_OPENEYE_CAN_SMILES>
CC1CN(CC(O1)C)C(C)C2=NSC(=C2)NC3=NC(=CN4C3=NC=C4C5=CNN=C5)C

> <PUBCHEM_OPENEYE_ISO_SMILES>
C[C@@H]1CN(C[C@@H](O1)C)[C@H](C)C2=NSC(=C2)NC3=NC(=CN4C3=NC=C4C5=CNN=C5)C

> <PUBCHEM_CACTVS_TPSA>
125

> <PUBCHEM_MONOISOTOPIC_WEIGHT>
438.19502866

> <PUBCHEM_TOTAL_CHARGE>
0

> <PUBCHEM_HEAVY_ATOM_COUNT>
31

> <PUBCHEM_ATOM_DEF_STEREO_COUNT>
3

> <PUBCHEM_ATOM_UDEF_STEREO_COUNT>
0

> <PUBCHEM_BOND_DEF_STEREO_COUNT>
0

> <PUBCHEM_BOND_UDEF_STEREO_COUNT>
0

> <PUBCHEM_ISOTOPIC_ATOM_COUNT>
0

> <PUBCHEM_COMPONENT_COUNT>
1

> <PUBCHEM_CACTVS_TAUTO_COUNT>
-1

> <PUBCHEM_COORDINATE_TYPE>
1
5
255

> <PUBCHEM_BONDANNOTATIONS>
1  21  8
1  4  8
10  31  8
13  16  5
14  17  5
15  19  6
18  20  8
20  21  8
22  23  8
24  27  8
25  26  8
28  30  8
28  31  8
4  18  8
6  23  8
6  24  8
6  25  8
7  22  8
7  26  8
8  23  8
8  27  8
9  10  8
9  30  8

$$$$
