49830558
  -OEChem-03202503232D

 48 51  0     1  0  0  0  0  0999 V2000
    2.8660    1.3522    0.0000 O   0  0  0  0  0  0  0  0  0  0  0  0
    4.5981    1.3522    0.0000 O   0  0  0  0  0  0  0  0  0  0  0  0
   10.1279   -1.1478    0.0000 N   0  0  3  0  0  0  0  0  0  0  0  0
   12.4758   -2.2356    0.0000 N   0  0  0  0  0  0  0  0  0  0  0  0
    5.5443   -1.9525    0.0000 N   0  0  0  0  0  0  0  0  0  0  0  0
    5.5443   -0.3431    0.0000 N   0  0  0  0  0  0  0  0  0  0  0  0
   11.6667   -1.6478    0.0000 C   0  0  3  0  0  0  0  0  0  0  0  0
   11.6667   -0.6478    0.0000 C   0  0  0  0  0  0  0  0  0  0  0  0
   10.7157   -1.9568    0.0000 C   0  0  0  0  0  0  0  0  0  0  0  0
   10.7157   -0.3388    0.0000 C   0  0  0  0  0  0  0  0  0  0  0  0
    9.1279   -1.1478    0.0000 C   0  0  0  0  0  0  0  0  0  0  0  0
    8.6279   -0.2818    0.0000 C   0  0  0  0  0  0  0  0  0  0  0  0
    8.6279   -2.0138    0.0000 C   0  0  0  0  0  0  0  0  0  0  0  0
    7.1279   -1.1478    0.0000 C   0  0  0  0  0  0  0  0  0  0  0  0
    7.6279   -0.2818    0.0000 C   0  0  0  0  0  0  0  0  0  0  0  0
    7.6279   -2.0138    0.0000 C   0  0  0  0  0  0  0  0  0  0  0  0
    6.1279   -1.1478    0.0000 C   0  0  0  0  0  0  0  0  0  0  0  0
    4.5981   -1.6478    0.0000 C   0  0  0  0  0  0  0  0  0  0  0  0
    4.5981   -0.6478    0.0000 C   0  0  0  0  0  0  0  0  0  0  0  0
    3.7320   -0.1478    0.0000 C   0  0  0  0  0  0  0  0  0  0  0  0
    3.7320   -2.1478    0.0000 C   0  0  0  0  0  0  0  0  0  0  0  0
    2.8660   -0.6478    0.0000 C   0  0  0  0  0  0  0  0  0  0  0  0
    2.8660   -1.6478    0.0000 C   0  0  0  0  0  0  0  0  0  0  0  0
    3.7320    0.8522    0.0000 C   0  0  0  0  0  0  0  0  0  0  0  0
    2.8660    2.3522    0.0000 C   0  0  0  0  0  0  0  0  0  0  0  0
    2.0000    2.8522    0.0000 C   0  0  0  0  0  0  0  0  0  0  0  0
   12.2192   -1.3663    0.0000 H   0  0  0  0  0  0  0  0  0  0  0  0
   12.2834   -0.7126    0.0000 H   0  0  0  0  0  0  0  0  0  0  0  0
   11.7957   -0.0414    0.0000 H   0  0  0  0  0  0  0  0  0  0  0  0
   10.1788   -2.2668    0.0000 H   0  0  0  0  0  0  0  0  0  0  0  0
   10.9679   -2.5232    0.0000 H   0  0  0  0  0  0  0  0  0  0  0  0
   10.9679    0.2276    0.0000 H   0  0  0  0  0  0  0  0  0  0  0  0
   10.1788   -0.0288    0.0000 H   0  0  0  0  0  0  0  0  0  0  0  0
   13.0422   -1.9834    0.0000 H   0  0  0  0  0  0  0  0  0  0  0  0
   12.4110   -2.8522    0.0000 H   0  0  0  0  0  0  0  0  0  0  0  0
    8.9379    0.2552    0.0000 H   0  0  0  0  0  0  0  0  0  0  0  0
    8.9379   -2.5508    0.0000 H   0  0  0  0  0  0  0  0  0  0  0  0
    7.3179    0.2552    0.0000 H   0  0  0  0  0  0  0  0  0  0  0  0
    7.3179   -2.5508    0.0000 H   0  0  0  0  0  0  0  0  0  0  0  0
    5.7369   -2.5419    0.0000 H   0  0  0  0  0  0  0  0  0  0  0  0
    3.7320   -2.7678    0.0000 H   0  0  0  0  0  0  0  0  0  0  0  0
    2.3291   -0.3378    0.0000 H   0  0  0  0  0  0  0  0  0  0  0  0
    2.3291   -1.9578    0.0000 H   0  0  0  0  0  0  0  0  0  0  0  0
    3.4766    2.2445    0.0000 H   0  0  0  0  0  0  0  0  0  0  0  0
    3.0781    2.9348    0.0000 H   0  0  0  0  0  0  0  0  0  0  0  0
    2.3100    3.3891    0.0000 H   0  0  0  0  0  0  0  0  0  0  0  0
    1.4631    3.1622    0.0000 H   0  0  0  0  0  0  0  0  0  0  0  0
    1.6900    2.3153    0.0000 H   0  0  0  0  0  0  0  0  0  0  0  0
  1 24  1  0  0  0  0
  1 25  1  0  0  0  0
  2 24  2  0  0  0  0
  3  9  1  0  0  0  0
  3 10  1  0  0  0  0
  3 11  1  0  0  0  0
  4  7  1  0  0  0  0
  4 34  1  0  0  0  0
  4 35  1  0  0  0  0
  5 17  1  0  0  0  0
  5 18  1  0  0  0  0
  5 40  1  0  0  0  0
  6 17  2  0  0  0  0
  6 19  1  0  0  0  0
  7  8  1  0  0  0  0
  7  9  1  0  0  0  0
  7 27  1  0  0  0  0
  8 10  1  0  0  0  0
  8 28  1  0  0  0  0
  8 29  1  0  0  0  0
  9 30  1  0  0  0  0
  9 31  1  0  0  0  0
 10 32  1  0  0  0  0
 10 33  1  0  0  0  0
 11 12  2  0  0  0  0
 11 13  1  0  0  0  0
 12 15  1  0  0  0  0
 12 36  1  0  0  0  0
 13 16  2  0  0  0  0
 13 37  1  0  0  0  0
 14 15  2  0  0  0  0
 14 16  1  0  0  0  0
 14 17  1  0  0  0  0
 15 38  1  0  0  0  0
 16 39  1  0  0  0  0
 18 19  1  0  0  0  0
 18 21  2  0  0  0  0
 19 20  2  0  0  0  0
 20 22  1  0  0  0  0
 20 24  1  0  0  0  0
 21 23  1  0  0  0  0
 21 41  1  0  0  0  0
 22 23  2  0  0  0  0
 22 42  1  0  0  0  0
 23 43  1  0  0  0  0
 25 26  1  0  0  0  0
 25 44  1  0  0  0  0
 25 45  1  0  0  0  0
 26 46  1  0  0  0  0
 26 47  1  0  0  0  0
 26 48  1  0  0  0  0
M  END
> <PUBCHEM_COMPOUND_CID>
49830558

> <PUBCHEM_COMPOUND_CANONICALIZED>
1

> <PUBCHEM_CACTVS_COMPLEXITY>
494

> <PUBCHEM_CACTVS_HBOND_ACCEPTOR>
5

> <PUBCHEM_CACTVS_HBOND_DONOR>
2

> <PUBCHEM_CACTVS_ROTATABLE_BOND>
5

> <PUBCHEM_CACTVS_SUBSKEYS>
AAADceB7sAAAAAAAAAAAAAAAAAAAAWLAAAAwYAAAAAAAAFgB9AAAHgAQAAAADCjhnwYz2LfJlACoAybybACCgC2lEqAJmaE4fNiIbrrA/ZmWMYhu0API6ee8yCCOCAAAQAACACAQAACAAAQAQAAAAAAAAA==

> <PUBCHEM_IUPAC_OPENEYE_NAME>
ethyl 2-[4-(3-aminopyrrolidin-1-yl)phenyl]-1H-benzimidazole-4-carboxylate

> <PUBCHEM_IUPAC_CAS_NAME>
2-[4-(3-amino-1-pyrrolidinyl)phenyl]-1H-benzimidazole-4-carboxylic acid ethyl ester

> <PUBCHEM_IUPAC_NAME_MARKUP>
ethyl 2-[4-(3-aminopyrrolidin-1-yl)phenyl]-1<I>H</I>-benzimidazole-4-carboxylate

> <PUBCHEM_IUPAC_NAME>
ethyl 2-[4-(3-aminopyrrolidin-1-yl)phenyl]-1H-benzimidazole-4-carboxylate

> <PUBCHEM_IUPAC_SYSTEMATIC_NAME>
ethyl 2-[4-(3-azanylpyrrolidin-1-yl)phenyl]-1H-benzimidazole-4-carboxylate

> <PUBCHEM_IUPAC_TRADITIONAL_NAME>
2-[4-(3-aminopyrrolidino)phenyl]-1H-benzimidazole-4-carboxylic acid ethyl ester

> <PUBCHEM_IUPAC_INCHI>
InChI=1S/C20H22N4O2/c1-2-26-20(25)16-4-3-5-17-18(16)23-19(22-17)13-6-8-15(9-7-13)24-11-10-14(21)12-24/h3-9,14H,2,10-12,21H2,1H3,(H,22,23)

> <PUBCHEM_IUPAC_INCHIKEY>
ZVEAATAOCUCEDL-UHFFFAOYSA-N

> <PUBCHEM_XLOGP3_AA>
2.7

> <PUBCHEM_EXACT_MASS>
350.17427596

> <PUBCHEM_MOLECULAR_FORMULA>
C20H22N4O2

> <PUBCHEM_MOLECULAR_WEIGHT>
350.4

> <PUBCHEM_SMILES>
CCOC(=O)C1=C2C(=CC=C1)NC(=N2)C3=CC=C(C=C3)N4CCC(C4)N

> <PUBCHEM_OPENEYE_CAN_SMILES>
CCOC(=O)C1=C2C(=CC=C1)NC(=N2)C3=CC=C(C=C3)N4CCC(C4)N

> <PUBCHEM_OPENEYE_ISO_SMILES>
CCOC(=O)C1=C2C(=CC=C1)NC(=N2)C3=CC=C(C=C3)N4CCC(C4)N

> <PUBCHEM_CACTVS_TPSA>
84.2

> <PUBCHEM_MONOISOTOPIC_WEIGHT>
350.17427596

> <PUBCHEM_TOTAL_CHARGE>
0

> <PUBCHEM_HEAVY_ATOM_COUNT>
26

> <PUBCHEM_ATOM_DEF_STEREO_COUNT>
0

> <PUBCHEM_ATOM_UDEF_STEREO_COUNT>
1

> <PUBCHEM_BOND_DEF_STEREO_COUNT>
0

> <PUBCHEM_BOND_UDEF_STEREO_COUNT>
0

> <PUBCHEM_ISOTOPIC_ATOM_COUNT>
0

> <PUBCHEM_COMPONENT_COUNT>
1

> <PUBCHEM_CACTVS_TAUTO_COUNT>
-1

> <PUBCHEM_COORDINATE_TYPE>
1
5
255

> <PUBCHEM_BONDANNOTATIONS>
11  12  8
11  13  8
12  15  8
13  16  8
14  15  8
14  16  8
18  19  8
18  21  8
19  20  8
20  22  8
21  23  8
22  23  8
7  4  3
5  17  8
5  18  8
6  17  8
6  19  8

$$$$
