49830327
  -OEChem-03202503422D

 37 39  0     0  0  0  0  0  0999 V2000
    3.9639    2.1756    0.0000 Cl  0  0  0  0  0  0  0  0  0  0  0  0
    6.8994    2.7942    0.0000 O   0  0  0  0  0  0  0  0  0  0  0  0
    4.6783   -2.8236    0.0000 N   0  0  0  0  0  0  0  0  0  0  0  0
    7.2566    1.0994    0.0000 N   0  0  0  0  0  0  0  0  0  0  0  0
    2.8660   -3.0188    0.0000 N   0  0  0  0  0  0  0  0  0  0  0  0
    5.6103    1.6375    0.0000 N   0  0  0  0  0  0  0  0  0  0  0  0
    4.6783   -1.2141    0.0000 C   0  0  0  0  0  0  0  0  0  0  0  0
    3.7320   -1.5188    0.0000 C   0  0  0  0  0  0  0  0  0  0  0  0
    4.9889   -0.2636    0.0000 C   0  0  0  0  0  0  0  0  0  0  0  0
    3.7320   -2.5188    0.0000 C   0  0  0  0  0  0  0  0  0  0  0  0
    5.2619   -2.0188    0.0000 C   0  0  0  0  0  0  0  0  0  0  0  0
    5.9674   -0.0573    0.0000 C   0  0  0  0  0  0  0  0  0  0  0  0
    8.5458    2.2561    0.0000 C   0  0  0  0  0  0  0  0  0  0  0  0
    2.8660   -1.0188    0.0000 C   0  0  0  0  0  0  0  0  0  0  0  0
    6.2781    0.8932    0.0000 C   0  0  0  0  0  0  0  0  0  0  0  0
    4.3211    0.4807    0.0000 C   0  0  0  0  0  0  0  0  0  0  0  0
    8.8564    3.2066    0.0000 C   0  0  0  0  0  0  0  0  0  0  0  0
    7.5673    2.0499    0.0000 C   0  0  0  0  0  0  0  0  0  0  0  0
    2.0000   -1.5188    0.0000 C   0  0  0  0  0  0  0  0  0  0  0  0
    4.6318    1.4313    0.0000 C   0  0  0  0  0  0  0  0  0  0  0  0
    9.8349    3.4129    0.0000 C   0  0  0  0  0  0  0  0  0  0  0  0
    2.0000   -2.5188    0.0000 C   0  0  0  0  0  0  0  0  0  0  0  0
    5.8819   -2.0188    0.0000 H   0  0  0  0  0  0  0  0  0  0  0  0
    4.8709   -3.4129    0.0000 H   0  0  0  0  0  0  0  0  0  0  0  0
    6.3815   -0.5188    0.0000 H   0  0  0  0  0  0  0  0  0  0  0  0
    8.5663    1.6365    0.0000 H   0  0  0  0  0  0  0  0  0  0  0  0
    9.1596    2.1688    0.0000 H   0  0  0  0  0  0  0  0  0  0  0  0
    2.8660   -0.3988    0.0000 H   0  0  0  0  0  0  0  0  0  0  0  0
    8.8359    3.8263    0.0000 H   0  0  0  0  0  0  0  0  0  0  0  0
    8.2426    3.2940    0.0000 H   0  0  0  0  0  0  0  0  0  0  0  0
    3.7144    0.3529    0.0000 H   0  0  0  0  0  0  0  0  0  0  0  0
    7.6707    0.6379    0.0000 H   0  0  0  0  0  0  0  0  0  0  0  0
    1.4631   -1.2088    0.0000 H   0  0  0  0  0  0  0  0  0  0  0  0
    9.9628    2.8062    0.0000 H   0  0  0  0  0  0  0  0  0  0  0  0
   10.4416    3.5407    0.0000 H   0  0  0  0  0  0  0  0  0  0  0  0
    9.7071    4.0196    0.0000 H   0  0  0  0  0  0  0  0  0  0  0  0
    1.4631   -2.8288    0.0000 H   0  0  0  0  0  0  0  0  0  0  0  0
  1 20  1  0  0  0  0
  2 18  2  0  0  0  0
  3 10  1  0  0  0  0
  3 11  1  0  0  0  0
  3 24  1  0  0  0  0
  4 15  1  0  0  0  0
  4 18  1  0  0  0  0
  4 32  1  0  0  0  0
  5 10  1  0  0  0  0
  5 22  2  0  0  0  0
  6 15  2  0  0  0  0
  6 20  1  0  0  0  0
  7  8  1  0  0  0  0
  7  9  1  0  0  0  0
  7 11  2  0  0  0  0
  8 10  2  0  0  0  0
  8 14  1  0  0  0  0
  9 12  2  0  0  0  0
  9 16  1  0  0  0  0
 11 23  1  0  0  0  0
 12 15  1  0  0  0  0
 12 25  1  0  0  0  0
 13 17  1  0  0  0  0
 13 18  1  0  0  0  0
 13 26  1  0  0  0  0
 13 27  1  0  0  0  0
 14 19  2  0  0  0  0
 14 28  1  0  0  0  0
 16 20  2  0  0  0  0
 16 31  1  0  0  0  0
 17 21  1  0  0  0  0
 17 29  1  0  0  0  0
 17 30  1  0  0  0  0
 19 22  1  0  0  0  0
 19 33  1  0  0  0  0
 21 34  1  0  0  0  0
 21 35  1  0  0  0  0
 21 36  1  0  0  0  0
 22 37  1  0  0  0  0
M  END
> <PUBCHEM_COMPOUND_CID>
49830327

> <PUBCHEM_COMPOUND_CANONICALIZED>
1

> <PUBCHEM_CACTVS_COMPLEXITY>
394

> <PUBCHEM_CACTVS_HBOND_ACCEPTOR>
3

> <PUBCHEM_CACTVS_HBOND_DONOR>
2

> <PUBCHEM_CACTVS_ROTATABLE_BOND>
4

> <PUBCHEM_CACTVS_SUBSKEYS>
AAADccB7oAAEAAAAAAAAAAAAAAAAAWAAAAAsWAAAAAAAAFgB/gAAHgIQAAAADALBmyQ/sN7JkACoAjN3dACCgCmxB6AJ2aE4ZpiIKPLBm5GEIAholQLIyCcQgMAOgAAAAAAAAAAAAAAAAAAAAAAAAAAAAA==

> <PUBCHEM_IUPAC_OPENEYE_NAME>
N-[6-chloro-4-(1H-pyrrolo[2,3-b]pyridin-3-yl)-2-pyridyl]butanamide

> <PUBCHEM_IUPAC_CAS_NAME>
N-[6-chloro-4-(1H-pyrrolo[2,3-b]pyridin-3-yl)-2-pyridinyl]butanamide

> <PUBCHEM_IUPAC_NAME_MARKUP>
<I>N</I>-[6-chloro-4-(1<I>H</I>-pyrrolo[2,3-b]pyridin-3-yl)pyridin-2-yl]butanamide

> <PUBCHEM_IUPAC_NAME>
N-[6-chloro-4-(1H-pyrrolo[2,3-b]pyridin-3-yl)pyridin-2-yl]butanamide

> <PUBCHEM_IUPAC_SYSTEMATIC_NAME>
N-[6-chloranyl-4-(1H-pyrrolo[2,3-b]pyridin-3-yl)pyridin-2-yl]butanamide

> <PUBCHEM_IUPAC_TRADITIONAL_NAME>
N-[6-chloro-4-(1H-pyrrolo[2,3-b]pyridin-3-yl)-2-pyridyl]butyramide

> <PUBCHEM_IUPAC_INCHI>
InChI=1S/C16H15ClN4O/c1-2-4-15(22)21-14-8-10(7-13(17)20-14)12-9-19-16-11(12)5-3-6-18-16/h3,5-9H,2,4H2,1H3,(H,18,19)(H,20,21,22)

> <PUBCHEM_IUPAC_INCHIKEY>
CRKQBJZCCHKEGI-UHFFFAOYSA-N

> <PUBCHEM_XLOGP3_AA>
3.2

> <PUBCHEM_EXACT_MASS>
314.0934388

> <PUBCHEM_MOLECULAR_FORMULA>
C16H15ClN4O

> <PUBCHEM_MOLECULAR_WEIGHT>
314.77

> <PUBCHEM_SMILES>
CCCC(=O)NC1=NC(=CC(=C1)C2=CNC3=C2C=CC=N3)Cl

> <PUBCHEM_OPENEYE_CAN_SMILES>
CCCC(=O)NC1=NC(=CC(=C1)C2=CNC3=C2C=CC=N3)Cl

> <PUBCHEM_OPENEYE_ISO_SMILES>
CCCC(=O)NC1=NC(=CC(=C1)C2=CNC3=C2C=CC=N3)Cl

> <PUBCHEM_CACTVS_TPSA>
70.7

> <PUBCHEM_MONOISOTOPIC_WEIGHT>
314.0934388

> <PUBCHEM_TOTAL_CHARGE>
0

> <PUBCHEM_HEAVY_ATOM_COUNT>
22

> <PUBCHEM_ATOM_DEF_STEREO_COUNT>
0

> <PUBCHEM_ATOM_UDEF_STEREO_COUNT>
0

> <PUBCHEM_BOND_DEF_STEREO_COUNT>
0

> <PUBCHEM_BOND_UDEF_STEREO_COUNT>
0

> <PUBCHEM_ISOTOPIC_ATOM_COUNT>
0

> <PUBCHEM_COMPONENT_COUNT>
1

> <PUBCHEM_CACTVS_TAUTO_COUNT>
-1

> <PUBCHEM_COORDINATE_TYPE>
1
5
255

> <PUBCHEM_BONDANNOTATIONS>
12  15  8
14  19  8
16  20  8
19  22  8
3  10  8
3  11  8
5  10  8
5  22  8
6  15  8
6  20  8
7  11  8
7  8  8
8  10  8
8  14  8
9  12  8
9  16  8

$$$$
