46945066
  -OEChem-03202501182D

 77 80  0     0  0  0  0  0  0999 V2000
    9.0635   -1.5985    0.0000 O   0  0  0  0  0  0  0  0  0  0  0  0
    5.5717    1.1381    0.0000 O   0  0  0  0  0  0  0  0  0  0  0  0
    5.4672   -1.8564    0.0000 N   0  0  0  0  0  0  0  0  0  0  0  0
    4.4890   -2.0643    0.0000 N   0  0  0  0  0  0  0  0  0  0  0  0
   12.2440   -3.2968    0.0000 N   0  0  0  0  0  0  0  0  0  0  0  0
    6.4378   -0.3619    0.0000 N   0  0  0  0  0  0  0  0  0  0  0  0
    9.5987   -3.2457    0.0000 N   0  0  0  0  0  0  0  0  0  0  0  0
    7.3038    1.1381    0.0000 N   0  0  0  0  0  0  0  0  0  0  0  0
    2.9945   -1.0937    0.0000 C   0  0  0  0  0  0  0  0  0  0  0  0
    3.9890   -1.1983    0.0000 C   0  0  0  0  0  0  0  0  0  0  0  0
    2.0000   -0.9892    0.0000 C   0  0  0  0  0  0  0  0  0  0  0  0
    2.8900   -2.0883    0.0000 C   0  0  0  0  0  0  0  0  0  0  0  0
    3.0990   -0.0992    0.0000 C   0  0  0  0  0  0  0  0  0  0  0  0
    4.6582   -0.4551    0.0000 C   0  0  0  0  0  0  0  0  0  0  0  0
    5.5717   -0.8619    0.0000 C   0  0  0  0  0  0  0  0  0  0  0  0
    6.2103   -2.5255    0.0000 C   0  0  0  0  0  0  0  0  0  0  0  0
   11.2929   -3.6059    0.0000 C   0  0  0  0  0  0  0  0  0  0  0  0
   10.5498   -2.9367    0.0000 C   0  0  0  0  0  0  0  0  0  0  0  0
    7.1614   -2.2165    0.0000 C   0  0  0  0  0  0  0  0  0  0  0  0
   12.9871   -3.9660    0.0000 C   0  0  0  0  0  0  0  0  0  0  0  0
   12.4519   -2.3187    0.0000 C   0  0  0  0  0  0  0  0  0  0  0  0
    7.9045   -2.8856    0.0000 C   0  0  0  0  0  0  0  0  0  0  0  0
    6.0024   -3.5037    0.0000 C   0  0  0  0  0  0  0  0  0  0  0  0
    8.8556   -2.5766    0.0000 C   0  0  0  0  0  0  0  0  0  0  0  0
    7.6966   -3.8638    0.0000 C   0  0  0  0  0  0  0  0  0  0  0  0
    6.7456   -4.1728    0.0000 C   0  0  0  0  0  0  0  0  0  0  0  0
    6.4378    0.6381    0.0000 C   0  0  0  0  0  0  0  0  0  0  0  0
   13.9382   -3.6570    0.0000 C   0  0  0  0  0  0  0  0  0  0  0  0
   13.4030   -2.0097    0.0000 C   0  0  0  0  0  0  0  0  0  0  0  0
    7.3038    2.1381    0.0000 C   0  0  0  0  0  0  0  0  0  0  0  0
    8.1698    2.6381    0.0000 C   0  0  0  0  0  0  0  0  0  0  0  0
    8.1698    3.6381    0.0000 C   0  0  0  0  0  0  0  0  0  0  0  0
    6.4378    2.6381    0.0000 C   0  0  0  0  0  0  0  0  0  0  0  0
    9.0637    2.1035    0.0000 C   0  0  0  0  0  0  0  0  0  0  0  0
    7.3038    4.1381    0.0000 C   0  0  0  0  0  0  0  0  0  0  0  0
    6.4378    3.6381    0.0000 C   0  0  0  0  0  0  0  0  0  0  0  0
    9.0637    4.1728    0.0000 C   0  0  0  0  0  0  0  0  0  0  0  0
    9.9698    2.6173    0.0000 C   0  0  0  0  0  0  0  0  0  0  0  0
    9.9698    3.6590    0.0000 C   0  0  0  0  0  0  0  0  0  0  0  0
    2.0648   -0.3726    0.0000 H   0  0  0  0  0  0  0  0  0  0  0  0
    1.3834   -0.9244    0.0000 H   0  0  0  0  0  0  0  0  0  0  0  0
    1.9352   -1.6058    0.0000 H   0  0  0  0  0  0  0  0  0  0  0  0
    2.2734   -2.0235    0.0000 H   0  0  0  0  0  0  0  0  0  0  0  0
    2.8252   -2.7049    0.0000 H   0  0  0  0  0  0  0  0  0  0  0  0
    3.5066   -2.1531    0.0000 H   0  0  0  0  0  0  0  0  0  0  0  0
    3.7156   -0.1640    0.0000 H   0  0  0  0  0  0  0  0  0  0  0  0
    3.1639    0.5174    0.0000 H   0  0  0  0  0  0  0  0  0  0  0  0
    2.4824   -0.0344    0.0000 H   0  0  0  0  0  0  0  0  0  0  0  0
    4.5293    0.1513    0.0000 H   0  0  0  0  0  0  0  0  0  0  0  0
   10.8044   -3.9876    0.0000 H   0  0  0  0  0  0  0  0  0  0  0  0
   11.5840   -4.1533    0.0000 H   0  0  0  0  0  0  0  0  0  0  0  0
    6.9747   -0.6719    0.0000 H   0  0  0  0  0  0  0  0  0  0  0  0
   11.0384   -2.5550    0.0000 H   0  0  0  0  0  0  0  0  0  0  0  0
   10.2587   -2.3893    0.0000 H   0  0  0  0  0  0  0  0  0  0  0  0
    7.2903   -1.6100    0.0000 H   0  0  0  0  0  0  0  0  0  0  0  0
   12.4986   -4.3477    0.0000 H   0  0  0  0  0  0  0  0  0  0  0  0
   13.2782   -4.5134    0.0000 H   0  0  0  0  0  0  0  0  0  0  0  0
   12.3656   -1.7047    0.0000 H   0  0  0  0  0  0  0  0  0  0  0  0
   11.8323   -2.2971    0.0000 H   0  0  0  0  0  0  0  0  0  0  0  0
    5.4128   -3.6953    0.0000 H   0  0  0  0  0  0  0  0  0  0  0  0
    9.4698   -3.8522    0.0000 H   0  0  0  0  0  0  0  0  0  0  0  0
    8.1574   -4.2786    0.0000 H   0  0  0  0  0  0  0  0  0  0  0  0
    6.6167   -4.7792    0.0000 H   0  0  0  0  0  0  0  0  0  0  0  0
   14.1298   -4.2466    0.0000 H   0  0  0  0  0  0  0  0  0  0  0  0
   14.5279   -3.4654    0.0000 H   0  0  0  0  0  0  0  0  0  0  0  0
   13.7466   -3.0673    0.0000 H   0  0  0  0  0  0  0  0  0  0  0  0
   13.5946   -2.5993    0.0000 H   0  0  0  0  0  0  0  0  0  0  0  0
   13.9926   -1.8181    0.0000 H   0  0  0  0  0  0  0  0  0  0  0  0
   13.2114   -1.4200    0.0000 H   0  0  0  0  0  0  0  0  0  0  0  0
    7.8407    0.8281    0.0000 H   0  0  0  0  0  0  0  0  0  0  0  0
    5.9008    2.3281    0.0000 H   0  0  0  0  0  0  0  0  0  0  0  0
    9.0566    1.4835    0.0000 H   0  0  0  0  0  0  0  0  0  0  0  0
    7.3038    4.7581    0.0000 H   0  0  0  0  0  0  0  0  0  0  0  0
    5.9008    3.9481    0.0000 H   0  0  0  0  0  0  0  0  0  0  0  0
    9.0566    4.7928    0.0000 H   0  0  0  0  0  0  0  0  0  0  0  0
   10.5055    2.3052    0.0000 H   0  0  0  0  0  0  0  0  0  0  0  0
   10.5055    3.9710    0.0000 H   0  0  0  0  0  0  0  0  0  0  0  0
  1 24  2  0  0  0  0
  2 27  2  0  0  0  0
  3  4  1  0  0  0  0
  3 15  1  0  0  0  0
  3 16  1  0  0  0  0
  4 10  2  0  0  0  0
  5 17  1  0  0  0  0
  5 20  1  0  0  0  0
  5 21  1  0  0  0  0
  6 15  1  0  0  0  0
  6 27  1  0  0  0  0
  6 52  1  0  0  0  0
  7 18  1  0  0  0  0
  7 24  1  0  0  0  0
  7 61  1  0  0  0  0
  8 27  1  0  0  0  0
  8 30  1  0  0  0  0
  8 70  1  0  0  0  0
  9 10  1  0  0  0  0
  9 11  1  0  0  0  0
  9 12  1  0  0  0  0
  9 13  1  0  0  0  0
 10 14  1  0  0  0  0
 11 40  1  0  0  0  0
 11 41  1  0  0  0  0
 11 42  1  0  0  0  0
 12 43  1  0  0  0  0
 12 44  1  0  0  0  0
 12 45  1  0  0  0  0
 13 46  1  0  0  0  0
 13 47  1  0  0  0  0
 13 48  1  0  0  0  0
 14 15  2  0  0  0  0
 14 49  1  0  0  0  0
 16 19  1  0  0  0  0
 16 23  2  0  0  0  0
 17 18  1  0  0  0  0
 17 50  1  0  0  0  0
 17 51  1  0  0  0  0
 18 53  1  0  0  0  0
 18 54  1  0  0  0  0
 19 22  2  0  0  0  0
 19 55  1  0  0  0  0
 20 28  1  0  0  0  0
 20 56  1  0  0  0  0
 20 57  1  0  0  0  0
 21 29  1  0  0  0  0
 21 58  1  0  0  0  0
 21 59  1  0  0  0  0
 22 24  1  0  0  0  0
 22 25  1  0  0  0  0
 23 26  1  0  0  0  0
 23 60  1  0  0  0  0
 25 26  2  0  0  0  0
 25 62  1  0  0  0  0
 26 63  1  0  0  0  0
 28 64  1  0  0  0  0
 28 65  1  0  0  0  0
 28 66  1  0  0  0  0
 29 67  1  0  0  0  0
 29 68  1  0  0  0  0
 29 69  1  0  0  0  0
 30 31  1  0  0  0  0
 30 33  2  0  0  0  0
 31 32  1  0  0  0  0
 31 34  2  0  0  0  0
 32 35  1  0  0  0  0
 32 37  2  0  0  0  0
 33 36  1  0  0  0  0
 33 71  1  0  0  0  0
 34 38  1  0  0  0  0
 34 72  1  0  0  0  0
 35 36  2  0  0  0  0
 35 73  1  0  0  0  0
 36 74  1  0  0  0  0
 37 39  1  0  0  0  0
 37 75  1  0  0  0  0
 38 39  2  0  0  0  0
 38 76  1  0  0  0  0
 39 77  1  0  0  0  0
M  END
> <PUBCHEM_COMPOUND_CID>
46945066

> <PUBCHEM_COMPOUND_CANONICALIZED>
1

> <PUBCHEM_CACTVS_COMPLEXITY>
796

> <PUBCHEM_CACTVS_HBOND_ACCEPTOR>
4

> <PUBCHEM_CACTVS_HBOND_DONOR>
3

> <PUBCHEM_CACTVS_ROTATABLE_BOND>
10

> <PUBCHEM_CACTVS_SUBSKEYS>
AAADcfB7sAAAAAAAAAAAAAAAAAAAAWAAAAAwYMAAAAAAAADB1AAAHgAYAAAADgjBngQz8NPIAACqAydydACSBCMlAgAdmKE4ZNiIYHLA1dGUpQh4nwLIyacciICPgAAAQAASAAAAAACAACQAAAAAAAAAAA==

> <PUBCHEM_IUPAC_OPENEYE_NAME>
3-[3-tert-butyl-5-(1-naphthylcarbamoylamino)pyrazol-1-yl]-N-[2-(diethylamino)ethyl]benzamide

> <PUBCHEM_IUPAC_CAS_NAME>
3-[3-tert-butyl-5-[[(1-naphthalenylamino)-oxomethyl]amino]-1-pyrazolyl]-N-[2-(diethylamino)ethyl]benzamide

> <PUBCHEM_IUPAC_NAME_MARKUP>
3-[3-<I>tert</I>-butyl-5-(naphthalen-1-ylcarbamoylamino)pyrazol-1-yl]-<I>N</I>-[2-(diethylamino)ethyl]benzamide

> <PUBCHEM_IUPAC_NAME>
3-[3-tert-butyl-5-(naphthalen-1-ylcarbamoylamino)pyrazol-1-yl]-N-[2-(diethylamino)ethyl]benzamide

> <PUBCHEM_IUPAC_SYSTEMATIC_NAME>
3-[3-tert-butyl-5-(naphthalen-1-ylcarbamoylamino)pyrazol-1-yl]-N-[2-(diethylamino)ethyl]benzamide

> <PUBCHEM_IUPAC_TRADITIONAL_NAME>
3-[3-tert-butyl-5-(1-naphthylcarbamoylamino)pyrazol-1-yl]-N-[2-(diethylamino)ethyl]benzamide

> <PUBCHEM_IUPAC_INCHI>
InChI=1S/C31H38N6O2/c1-6-36(7-2)19-18-32-29(38)23-14-10-15-24(20-23)37-28(21-27(35-37)31(3,4)5)34-30(39)33-26-17-11-13-22-12-8-9-16-25(22)26/h8-17,20-21H,6-7,18-19H2,1-5H3,(H,32,38)(H2,33,34,39)

> <PUBCHEM_IUPAC_INCHIKEY>
NOBMKUVHFRVBES-UHFFFAOYSA-N

> <PUBCHEM_XLOGP3_AA>
5.8

> <PUBCHEM_EXACT_MASS>
526.30562448

> <PUBCHEM_MOLECULAR_FORMULA>
C31H38N6O2

> <PUBCHEM_MOLECULAR_WEIGHT>
526.7

> <PUBCHEM_SMILES>
CCN(CC)CCNC(=O)C1=CC(=CC=C1)N2C(=CC(=N2)C(C)(C)C)NC(=O)NC3=CC=CC4=CC=CC=C43

> <PUBCHEM_OPENEYE_CAN_SMILES>
CCN(CC)CCNC(=O)C1=CC(=CC=C1)N2C(=CC(=N2)C(C)(C)C)NC(=O)NC3=CC=CC4=CC=CC=C43

> <PUBCHEM_OPENEYE_ISO_SMILES>
CCN(CC)CCNC(=O)C1=CC(=CC=C1)N2C(=CC(=N2)C(C)(C)C)NC(=O)NC3=CC=CC4=CC=CC=C43

> <PUBCHEM_CACTVS_TPSA>
91.3

> <PUBCHEM_MONOISOTOPIC_WEIGHT>
526.30562448

> <PUBCHEM_TOTAL_CHARGE>
0

> <PUBCHEM_HEAVY_ATOM_COUNT>
39

> <PUBCHEM_ATOM_DEF_STEREO_COUNT>
0

> <PUBCHEM_ATOM_UDEF_STEREO_COUNT>
0

> <PUBCHEM_BOND_DEF_STEREO_COUNT>
0

> <PUBCHEM_BOND_UDEF_STEREO_COUNT>
0

> <PUBCHEM_ISOTOPIC_ATOM_COUNT>
0

> <PUBCHEM_COMPONENT_COUNT>
1

> <PUBCHEM_CACTVS_TAUTO_COUNT>
-1

> <PUBCHEM_COORDINATE_TYPE>
1
5
255

> <PUBCHEM_BONDANNOTATIONS>
10  14  8
14  15  8
16  19  8
16  23  8
19  22  8
22  25  8
23  26  8
25  26  8
3  15  8
3  4  8
30  31  8
30  33  8
31  32  8
31  34  8
32  35  8
32  37  8
33  36  8
34  38  8
35  36  8
37  39  8
38  39  8
4  10  8

$$$$
