44520205
  -OEChem-03202503032D

 46 49  0     0  0  0  0  0  0999 V2000
   11.7920    2.2025    0.0000 F   0  0  0  0  0  0  0  0  0  0  0  0
    4.3211   -1.1421    0.0000 O   0  0  0  0  0  0  0  0  0  0  0  0
    8.8564    1.5838    0.0000 O   0  0  0  0  0  0  0  0  0  0  0  0
    3.7320   -4.1416    0.0000 N   0  0  0  0  0  0  0  0  0  0  0  0
    5.9674   -1.6802    0.0000 N   0  0  0  0  0  0  0  0  0  0  0  0
    2.8660   -4.6416    0.0000 N   0  0  0  0  0  0  0  0  0  0  0  0
    2.0000   -3.1416    0.0000 N   0  0  0  0  0  0  0  0  0  0  0  0
    7.2101    2.1219    0.0000 N   0  0  0  0  0  0  0  0  0  0  0  0
    2.8660   -1.6416    0.0000 N   0  0  0  0  0  0  0  0  0  0  0  0
    8.4993    3.2787    0.0000 N   0  0  0  0  0  0  0  0  0  0  0  0
    3.7320   -3.1416    0.0000 C   0  0  0  0  0  0  0  0  0  0  0  0
    4.6783   -2.8369    0.0000 C   0  0  0  0  0  0  0  0  0  0  0  0
    5.2619   -3.6416    0.0000 C   0  0  0  0  0  0  0  0  0  0  0  0
    4.6783   -4.4464    0.0000 C   0  0  0  0  0  0  0  0  0  0  0  0
    4.9889   -1.8864    0.0000 C   0  0  0  0  0  0  0  0  0  0  0  0
    2.8660   -2.6416    0.0000 C   0  0  0  0  0  0  0  0  0  0  0  0
    6.2781   -0.7296    0.0000 C   0  0  0  0  0  0  0  0  0  0  0  0
    6.8994    1.1714    0.0000 C   0  0  0  0  0  0  0  0  0  0  0  0
    5.6103    0.0147    0.0000 C   0  0  0  0  0  0  0  0  0  0  0  0
    7.2566   -0.5234    0.0000 C   0  0  0  0  0  0  0  0  0  0  0  0
    5.9209    0.9652    0.0000 C   0  0  0  0  0  0  0  0  0  0  0  0
    7.5673    0.4271    0.0000 C   0  0  0  0  0  0  0  0  0  0  0  0
    2.0000   -4.1416    0.0000 C   0  0  0  0  0  0  0  0  0  0  0  0
    8.1886    2.3282    0.0000 C   0  0  0  0  0  0  0  0  0  0  0  0
    9.4778    3.4849    0.0000 C   0  0  0  0  0  0  0  0  0  0  0  0
   10.1456    2.7406    0.0000 C   0  0  0  0  0  0  0  0  0  0  0  0
    9.7884    4.4354    0.0000 C   0  0  0  0  0  0  0  0  0  0  0  0
   11.1241    2.9468    0.0000 C   0  0  0  0  0  0  0  0  0  0  0  0
   10.7669    4.6416    0.0000 C   0  0  0  0  0  0  0  0  0  0  0  0
   11.4348    3.8973    0.0000 C   0  0  0  0  0  0  0  0  0  0  0  0
    5.8819   -3.6416    0.0000 H   0  0  0  0  0  0  0  0  0  0  0  0
    4.8709   -5.0357    0.0000 H   0  0  0  0  0  0  0  0  0  0  0  0
    6.3815   -2.1416    0.0000 H   0  0  0  0  0  0  0  0  0  0  0  0
    5.0036   -0.1132    0.0000 H   0  0  0  0  0  0  0  0  0  0  0  0
    7.6707   -0.9849    0.0000 H   0  0  0  0  0  0  0  0  0  0  0  0
    5.5069    1.4267    0.0000 H   0  0  0  0  0  0  0  0  0  0  0  0
    8.1739    0.5550    0.0000 H   0  0  0  0  0  0  0  0  0  0  0  0
    1.4631   -4.4516    0.0000 H   0  0  0  0  0  0  0  0  0  0  0  0
    6.7960    2.5834    0.0000 H   0  0  0  0  0  0  0  0  0  0  0  0
    2.3291   -1.3316    0.0000 H   0  0  0  0  0  0  0  0  0  0  0  0
    3.4030   -1.3316    0.0000 H   0  0  0  0  0  0  0  0  0  0  0  0
    8.0852    3.7401    0.0000 H   0  0  0  0  0  0  0  0  0  0  0  0
    9.9530    2.1513    0.0000 H   0  0  0  0  0  0  0  0  0  0  0  0
    9.3744    4.8969    0.0000 H   0  0  0  0  0  0  0  0  0  0  0  0
   10.9595    5.2310    0.0000 H   0  0  0  0  0  0  0  0  0  0  0  0
   12.0414    4.0252    0.0000 H   0  0  0  0  0  0  0  0  0  0  0  0
  1 28  1  0  0  0  0
  2 15  2  0  0  0  0
  3 24  2  0  0  0  0
  4  6  1  0  0  0  0
  4 11  1  0  0  0  0
  4 14  1  0  0  0  0
  5 15  1  0  0  0  0
  5 17  1  0  0  0  0
  5 33  1  0  0  0  0
  6 23  2  0  0  0  0
  7 16  2  0  0  0  0
  7 23  1  0  0  0  0
  8 18  1  0  0  0  0
  8 24  1  0  0  0  0
  8 39  1  0  0  0  0
  9 16  1  0  0  0  0
  9 40  1  0  0  0  0
  9 41  1  0  0  0  0
 10 24  1  0  0  0  0
 10 25  1  0  0  0  0
 10 42  1  0  0  0  0
 11 12  2  0  0  0  0
 11 16  1  0  0  0  0
 12 13  1  0  0  0  0
 12 15  1  0  0  0  0
 13 14  2  0  0  0  0
 13 31  1  0  0  0  0
 14 32  1  0  0  0  0
 17 19  2  0  0  0  0
 17 20  1  0  0  0  0
 18 21  2  0  0  0  0
 18 22  1  0  0  0  0
 19 21  1  0  0  0  0
 19 34  1  0  0  0  0
 20 22  2  0  0  0  0
 20 35  1  0  0  0  0
 21 36  1  0  0  0  0
 22 37  1  0  0  0  0
 23 38  1  0  0  0  0
 25 26  2  0  0  0  0
 25 27  1  0  0  0  0
 26 28  1  0  0  0  0
 26 43  1  0  0  0  0
 27 29  2  0  0  0  0
 27 44  1  0  0  0  0
 28 30  2  0  0  0  0
 29 30  1  0  0  0  0
 29 45  1  0  0  0  0
 30 46  1  0  0  0  0
M  END
> <PUBCHEM_COMPOUND_CID>
44520205

> <PUBCHEM_COMPOUND_CANONICALIZED>
1

> <PUBCHEM_CACTVS_COMPLEXITY>
616

> <PUBCHEM_CACTVS_HBOND_ACCEPTOR>
6

> <PUBCHEM_CACTVS_HBOND_DONOR>
4

> <PUBCHEM_CACTVS_ROTATABLE_BOND>
4

> <PUBCHEM_CACTVS_SUBSKEYS>
AAADceB7sQAAAAAAAAAAAAAAAAAAAWAAAAA8YIAAAAAAAFgB9AAAHwAYAAAADAjBngw98LbIEACqAzd3dACShC81kqAd2CE4dNiIaPrA3ZGUoYhonALIyecUAAAKAACAAAAAAAAAAQAAAAAAAAAAAAAAAA==

> <PUBCHEM_IUPAC_OPENEYE_NAME>
4-amino-N-[4-[(3-fluorophenyl)carbamoylamino]phenyl]pyrrolo[2,1-f][1,2,4]triazine-5-carboxamide

> <PUBCHEM_IUPAC_CAS_NAME>
4-amino-N-[4-[[(3-fluoroanilino)-oxomethyl]amino]phenyl]-5-pyrrolo[2,1-f][1,2,4]triazinecarboxamide

> <PUBCHEM_IUPAC_NAME_MARKUP>
4-amino-<I>N</I>-[4-[(3-fluorophenyl)carbamoylamino]phenyl]pyrrolo[2,1-f][1,2,4]triazine-5-carboxamide

> <PUBCHEM_IUPAC_NAME>
4-amino-N-[4-[(3-fluorophenyl)carbamoylamino]phenyl]pyrrolo[2,1-f][1,2,4]triazine-5-carboxamide

> <PUBCHEM_IUPAC_SYSTEMATIC_NAME>
4-azanyl-N-[4-[(3-fluorophenyl)carbamoylamino]phenyl]pyrrolo[2,1-f][1,2,4]triazine-5-carboxamide

> <PUBCHEM_IUPAC_TRADITIONAL_NAME>
4-amino-N-[4-[(3-fluorophenyl)carbamoylamino]phenyl]pyrrolo[2,1-f][1,2,4]triazine-5-carboxamide

> <PUBCHEM_IUPAC_INCHI>
InChI=1S/C20H16FN7O2/c21-12-2-1-3-15(10-12)27-20(30)26-14-6-4-13(5-7-14)25-19(29)16-8-9-28-17(16)18(22)23-11-24-28/h1-11H,(H,25,29)(H2,22,23,24)(H2,26,27,30)

> <PUBCHEM_IUPAC_INCHIKEY>
DASFSPDIWCMVRW-UHFFFAOYSA-N

> <PUBCHEM_XLOGP3_AA>
1.6

> <PUBCHEM_EXACT_MASS>
405.13495094

> <PUBCHEM_MOLECULAR_FORMULA>
C20H16FN7O2

> <PUBCHEM_MOLECULAR_WEIGHT>
405.4

> <PUBCHEM_SMILES>
C1=CC(=CC(=C1)F)NC(=O)NC2=CC=C(C=C2)NC(=O)C3=C4C(=NC=NN4C=C3)N

> <PUBCHEM_OPENEYE_CAN_SMILES>
C1=CC(=CC(=C1)F)NC(=O)NC2=CC=C(C=C2)NC(=O)C3=C4C(=NC=NN4C=C3)N

> <PUBCHEM_OPENEYE_ISO_SMILES>
C1=CC(=CC(=C1)F)NC(=O)NC2=CC=C(C=C2)NC(=O)C3=C4C(=NC=NN4C=C3)N

> <PUBCHEM_CACTVS_TPSA>
126

> <PUBCHEM_MONOISOTOPIC_WEIGHT>
405.13495094

> <PUBCHEM_TOTAL_CHARGE>
0

> <PUBCHEM_HEAVY_ATOM_COUNT>
30

> <PUBCHEM_ATOM_DEF_STEREO_COUNT>
0

> <PUBCHEM_ATOM_UDEF_STEREO_COUNT>
0

> <PUBCHEM_BOND_DEF_STEREO_COUNT>
0

> <PUBCHEM_BOND_UDEF_STEREO_COUNT>
0

> <PUBCHEM_ISOTOPIC_ATOM_COUNT>
0

> <PUBCHEM_COMPONENT_COUNT>
1

> <PUBCHEM_CACTVS_TAUTO_COUNT>
-1

> <PUBCHEM_COORDINATE_TYPE>
1
5
255

> <PUBCHEM_BONDANNOTATIONS>
11  12  8
11  16  8
12  13  8
13  14  8
17  19  8
17  20  8
18  21  8
18  22  8
19  21  8
20  22  8
25  26  8
25  27  8
26  28  8
27  29  8
28  30  8
29  30  8
4  11  8
4  14  8
4  6  8
6  23  8
7  16  8
7  23  8

$$$$
