46877399
  -OEChem-03202507132D

110119  0     1  0  0  0  0  0999 V2000
    7.1325   -2.4132    0.0000 O   0  0  0  0  0  0  0  0  0  0  0  0
    4.3454   -0.9612    0.0000 O   0  0  0  0  0  0  0  0  0  0  0  0
    6.6853   -1.2079    0.0000 O   0  0  0  0  0  0  0  0  0  0  0  0
    4.5906   -3.0142    0.0000 O   0  0  0  0  0  0  0  0  0  0  0  0
    6.2035   -1.6245    0.0000 O   0  0  0  0  0  0  0  0  0  0  0  0
    6.1506   -4.6944    0.0000 O   0  0  0  0  0  0  0  0  0  0  0  0
    6.4106    0.9839    0.0000 O   0  0  0  0  0  0  0  0  0  0  0  0
    8.8205   -3.6432    0.0000 O   0  0  0  0  0  0  0  0  0  0  0  0
    8.1353   -1.1069    0.0000 O   0  0  0  0  0  0  0  0  0  0  0  0
    3.6707   -1.0800    0.0000 O   0  0  0  0  0  0  0  0  0  0  0  0
    2.9224   -1.7130    0.0000 O   0  0  0  0  0  0  0  0  0  0  0  0
    2.3913   -2.5585    0.0000 O   0  0  0  0  0  0  0  0  0  0  0  0
    3.2843   -4.4651    0.0000 O   0  0  0  0  0  0  0  0  0  0  0  0
    7.8765    1.2733    0.0000 O   0  0  0  0  0  0  0  0  0  0  0  0
    7.4842   -1.5125    0.0000 O   0  0  0  0  0  0  0  0  0  0  0  0
    4.5869   -5.0088    0.0000 O   0  0  0  0  0  0  0  0  0  0  0  0
    8.0080   -5.6165    0.0000 O   0  0  0  0  0  0  0  0  0  0  0  0
    6.1164   -6.3321    0.0000 O   0  0  0  0  0  0  0  0  0  0  0  0
    7.9068    1.7628    0.0000 O   0  0  0  0  0  0  0  0  0  0  0  0
    7.6176   -3.0387    0.0000 O   0  0  0  0  0  0  0  0  0  0  0  0
    8.7799   -5.4565    0.0000 O   0  0  0  0  0  0  0  0  0  0  0  0
    6.9832    2.9587    0.0000 O   0  0  0  0  0  0  0  0  0  0  0  0
   10.7624   -4.9416    0.0000 O   0  0  0  0  0  0  0  0  0  0  0  0
   11.2926   -2.9631    0.0000 O   0  0  0  0  0  0  0  0  0  0  0  0
    5.1622    4.8845    0.0000 O   0  0  0  0  0  0  0  0  0  0  0  0
    3.3804    1.8258    0.0000 O   0  0  0  0  0  0  0  0  0  0  0  0
    6.0228    5.3814    0.0000 O   0  0  0  0  0  0  0  0  0  0  0  0
    3.3804    3.8741    0.0000 O   0  0  0  0  0  0  0  0  0  0  0  0
    7.7887    6.4192    0.0000 O   0  0  0  0  0  0  0  0  0  0  0  0
    9.5626    5.3950    0.0000 O   0  0  0  0  0  0  0  0  0  0  0  0
    5.3989   -1.4663    0.0000 C   0  0  2  0  0  0  0  0  0  0  0  0
    6.1907   -2.0770    0.0000 C   0  0  2  0  0  0  0  0  0  0  0  0
    5.2154   -0.4802    0.0000 C   0  0  3  0  0  0  0  0  0  0  0  0
    5.5800   -2.8689    0.0000 C   0  0  1  0  0  0  0  0  0  0  0  0
    6.1443   -3.6944    0.0000 C   0  0  1  0  0  0  0  0  0  0  0  0
    7.1038   -3.4128    0.0000 C   0  0  2  0  0  0  0  0  0  0  0  0
    6.2035   -0.5892    0.0000 C   0  0  3  0  0  0  0  0  0  0  0  0
    4.9618   -2.3691    0.0000 C   0  0  0  0  0  0  0  0  0  0  0  0
    6.9106    0.1179    0.0000 C   0  0  3  0  0  0  0  0  0  0  0  0
    4.0745   -2.8367    0.0000 C   0  0  0  0  0  0  0  0  0  0  0  0
    7.8956   -4.0236    0.0000 C   0  0  0  0  0  0  0  0  0  0  0  0
    4.0518   -2.0045    0.0000 C   0  0  0  0  0  0  0  0  0  0  0  0
    3.9122   -1.8559    0.0000 C   0  0  0  0  0  0  0  0  0  0  0  0
    4.7729   -3.5442    0.0000 C   0  0  0  0  0  0  0  0  0  0  0  0
    7.8765   -0.1410    0.0000 C   0  0  3  0  0  0  0  0  0  0  0  0
    3.3786   -2.7172    0.0000 C   0  0  0  0  0  0  0  0  0  0  0  0
    5.7515   -3.7191    0.0000 C   0  0  0  0  0  0  0  0  0  0  0  0
    3.7944   -3.6050    0.0000 C   0  0  0  0  0  0  0  0  0  0  0  0
    6.6518   -3.2976    0.0000 C   0  0  0  0  0  0  0  0  0  0  0  0
    6.9106   -2.3316    0.0000 C   0  0  0  0  0  0  0  0  0  0  0  0
    8.5836    0.5662    0.0000 C   0  0  0  0  0  0  0  0  0  0  0  0
    7.3589   -4.0047    0.0000 C   0  0  0  0  0  0  0  0  0  0  0  0
    5.5361   -4.6942    0.0000 C   0  0  0  0  0  0  0  0  0  0  0  0
    6.9106    1.8499    0.0000 C   0  0  0  0  0  0  0  0  0  0  0  0
    8.3248   -3.7458    0.0000 C   0  0  0  0  0  0  0  0  0  0  0  0
    7.2252   -4.9942    0.0000 C   0  0  0  0  0  0  0  0  0  0  0  0
    6.2913   -5.3475    0.0000 C   0  0  0  0  0  0  0  0  0  0  0  0
    7.8765   -2.0728    0.0000 C   0  0  0  0  0  0  0  0  0  0  0  0
    8.5836   -2.7799    0.0000 C   0  0  0  0  0  0  0  0  0  0  0  0
    6.0445    2.3499    0.0000 C   0  0  0  0  0  0  0  0  0  0  0  0
    9.0499   -4.4936    0.0000 C   0  0  0  0  0  0  0  0  0  0  0  0
    7.7766    2.3499    0.0000 C   0  0  0  0  0  0  0  0  0  0  0  0
    9.5855   -2.4948    0.0000 C   0  0  0  0  0  0  0  0  0  0  0  0
    6.0445    3.3499    0.0000 C   0  0  0  0  0  0  0  0  0  0  0  0
    7.7766    3.3499    0.0000 C   0  0  0  0  0  0  0  0  0  0  0  0
    6.9106    3.8499    0.0000 C   0  0  0  0  0  0  0  0  0  0  0  0
   10.0581   -4.2318    0.0000 C   0  0  0  0  0  0  0  0  0  0  0  0
    5.1506    1.8153    0.0000 C   0  0  0  0  0  0  0  0  0  0  0  0
   10.3277   -3.2257    0.0000 C   0  0  0  0  0  0  0  0  0  0  0  0
    5.1506    3.8846    0.0000 C   0  0  0  0  0  0  0  0  0  0  0  0
    4.2445    2.3291    0.0000 C   0  0  0  0  0  0  0  0  0  0  0  0
    6.8945    4.8914    0.0000 C   0  0  0  0  0  0  0  0  0  0  0  0
    8.6866    3.8568    0.0000 C   0  0  0  0  0  0  0  0  0  0  0  0
    4.2445    3.3707    0.0000 C   0  0  0  0  0  0  0  0  0  0  0  0
    7.7926    5.4192    0.0000 C   0  0  0  0  0  0  0  0  0  0  0  0
    8.6946    4.8984    0.0000 C   0  0  0  0  0  0  0  0  0  0  0  0
    5.6566   -0.6563    0.0000 H   0  0  0  0  0  0  0  0  0  0  0  0
    5.0937    0.1277    0.0000 H   0  0  0  0  0  0  0  0  0  0  0  0
    5.2666   -2.3339    0.0000 H   0  0  0  0  0  0  0  0  0  0  0  0
    5.5525   -3.8794    0.0000 H   0  0  0  0  0  0  0  0  0  0  0  0
    7.6641   -3.1473    0.0000 H   0  0  0  0  0  0  0  0  0  0  0  0
    6.7763   -0.8265    0.0000 H   0  0  0  0  0  0  0  0  0  0  0  0
    7.0710   -0.4810    0.0000 H   0  0  0  0  0  0  0  0  0  0  0  0
    7.4375   -4.4413    0.0000 H   0  0  0  0  0  0  0  0  0  0  0  0
    8.2275   -4.5473    0.0000 H   0  0  0  0  0  0  0  0  0  0  0  0
    7.2203   -0.8946    0.0000 H   0  0  0  0  0  0  0  0  0  0  0  0
    8.4754   -0.3014    0.0000 H   0  0  0  0  0  0  0  0  0  0  0  0
    4.3619   -3.5904    0.0000 H   0  0  0  0  0  0  0  0  0  0  0  0
    6.7605   -4.5828    0.0000 H   0  0  0  0  0  0  0  0  0  0  0  0
    9.0220    0.1277    0.0000 H   0  0  0  0  0  0  0  0  0  0  0  0
    9.0220    1.0046    0.0000 H   0  0  0  0  0  0  0  0  0  0  0  0
    9.4350   -3.7257    0.0000 H   0  0  0  0  0  0  0  0  0  0  0  0
    3.0561   -0.9980    0.0000 H   0  0  0  0  0  0  0  0  0  0  0  0
    2.0000   -3.0394    0.0000 H   0  0  0  0  0  0  0  0  0  0  0  0
    2.6644   -4.4579    0.0000 H   0  0  0  0  0  0  0  0  0  0  0  0
    4.4616   -5.6160    0.0000 H   0  0  0  0  0  0  0  0  0  0  0  0
    9.7390   -1.8942    0.0000 H   0  0  0  0  0  0  0  0  0  0  0  0
    7.9165   -6.2297    0.0000 H   0  0  0  0  0  0  0  0  0  0  0  0
    6.5908   -6.7312    0.0000 H   0  0  0  0  0  0  0  0  0  0  0  0
    5.1578    1.1953    0.0000 H   0  0  0  0  0  0  0  0  0  0  0  0
    9.2132   -5.9000    0.0000 H   0  0  0  0  0  0  0  0  0  0  0  0
    9.2199    3.5406    0.0000 H   0  0  0  0  0  0  0  0  0  0  0  0
   11.3619   -4.7835    0.0000 H   0  0  0  0  0  0  0  0  0  0  0  0
   11.4507   -2.3636    0.0000 H   0  0  0  0  0  0  0  0  0  0  0  0
    4.6288    5.2007    0.0000 H   0  0  0  0  0  0  0  0  0  0  0  0
    2.8423    2.1337    0.0000 H   0  0  0  0  0  0  0  0  0  0  0  0
    6.0156    6.0013    0.0000 H   0  0  0  0  0  0  0  0  0  0  0  0
    2.8423    3.5661    0.0000 H   0  0  0  0  0  0  0  0  0  0  0  0
    8.3244    6.7312    0.0000 H   0  0  0  0  0  0  0  0  0  0  0  0
   10.0983    5.0830    0.0000 H   0  0  0  0  0  0  0  0  0  0  0  0
  1 32  1  0  0  0  0
  1 36  1  0  0  0  0
  2 33  1  0  0  0  0
  2 43  1  0  0  0  0
 32  3  1  6  0  0  0
  3 86  1  0  0  0  0
 34  4  1  1  0  0  0
  4 88  1  0  0  0  0
  5 37  1  0  0  0  0
  5 50  1  0  0  0  0
 35  6  1  1  0  0  0
  6 89  1  0  0  0  0
  7 39  1  0  0  0  0
  7 54  1  0  0  0  0
  8 41  1  0  0  0  0
  8 92  1  0  0  0  0
  9 45  1  0  0  0  0
  9 58  1  0  0  0  0
 10 42  1  0  0  0  0
 10 93  1  0  0  0  0
 11 43  2  0  0  0  0
 12 46  1  0  0  0  0
 12 94  1  0  0  0  0
 13 48  1  0  0  0  0
 13 95  1  0  0  0  0
 14 51  1  0  0  0  0
 14 62  1  0  0  0  0
 15 50  2  0  0  0  0
 16 53  1  0  0  0  0
 16 96  1  0  0  0  0
 17 56  1  0  0  0  0
 17 98  1  0  0  0  0
 18 57  1  0  0  0  0
 18 99  1  0  0  0  0
 19 54  2  0  0  0  0
 20 58  2  0  0  0  0
 21 61  1  0  0  0  0
 21101  1  0  0  0  0
 22 62  2  0  0  0  0
 23 67  1  0  0  0  0
 23103  1  0  0  0  0
 24 69  1  0  0  0  0
 24104  1  0  0  0  0
 25 70  1  0  0  0  0
 25105  1  0  0  0  0
 26 71  1  0  0  0  0
 26106  1  0  0  0  0
 27 72  1  0  0  0  0
 27107  1  0  0  0  0
 28 74  1  0  0  0  0
 28108  1  0  0  0  0
 29 75  1  0  0  0  0
 29109  1  0  0  0  0
 30 76  1  0  0  0  0
 30110  1  0  0  0  0
 31 32  1  0  0  0  0
 31 33  1  0  0  0  0
 31 38  1  0  0  0  0
 31 77  1  6  0  0  0
 32 34  1  0  0  0  0
 33 37  1  0  0  0  0
 33 78  1  0  0  0  0
 34 35  1  0  0  0  0
 34 79  1  0  0  0  0
 35 36  1  0  0  0  0
 35 80  1  0  0  0  0
 36 41  1  1  0  0  0
 36 81  1  0  0  0  0
 37 39  1  0  0  0  0
 37 82  1  0  0  0  0
 38 40  1  0  0  0  0
 38 42  2  0  0  0  0
 39 45  1  0  0  0  0
 39 83  1  0  0  0  0
 40 43  1  0  0  0  0
 40 44  2  0  0  0  0
 41 84  1  0  0  0  0
 41 85  1  0  0  0  0
 42 46  1  0  0  0  0
 44 47  1  0  0  0  0
 44 48  1  0  0  0  0
 45 51  1  0  0  0  0
 45 87  1  0  0  0  0
 46 48  2  0  0  0  0
 47 49  1  0  0  0  0
 47 53  2  0  0  0  0
 49 50  1  0  0  0  0
 49 52  2  0  0  0  0
 51 90  1  0  0  0  0
 51 91  1  0  0  0  0
 52 55  1  0  0  0  0
 52 56  1  0  0  0  0
 53 57  1  0  0  0  0
 54 60  1  0  0  0  0
 55 59  1  0  0  0  0
 55 61  2  0  0  0  0
 56 57  2  0  0  0  0
 58 59  1  0  0  0  0
 59 63  2  0  0  0  0
 60 64  1  0  0  0  0
 60 68  2  0  0  0  0
 61 67  1  0  0  0  0
 62 65  1  0  0  0  0
 63 69  1  0  0  0  0
 63 97  1  0  0  0  0
 64 66  1  0  0  0  0
 64 70  2  0  0  0  0
 65 66  1  0  0  0  0
 65 73  2  0  0  0  0
 66 72  2  0  0  0  0
 67 69  2  0  0  0  0
 68 71  1  0  0  0  0
 68100  1  0  0  0  0
 70 74  1  0  0  0  0
 71 74  2  0  0  0  0
 72 75  1  0  0  0  0
 73 76  1  0  0  0  0
 73102  1  0  0  0  0
 75 76  2  0  0  0  0
M  END
> <PUBCHEM_COMPOUND_CID>
46877399

> <PUBCHEM_COMPOUND_CANONICALIZED>
1

> <PUBCHEM_CACTVS_COMPLEXITY>
2260

> <PUBCHEM_CACTVS_HBOND_ACCEPTOR>
30

> <PUBCHEM_CACTVS_HBOND_DONOR>
19

> <PUBCHEM_CACTVS_ROTATABLE_BOND>
2

> <PUBCHEM_CACTVS_SUBSKEYS>
AAADcfB8PgAAAAAAAAAAAAAAAAAAASAAAAA0YMGDAAAAAACRVAAAGgAACAAADRSgmAIwDoAABgCIAiDSCAACAAAkIAAAiAEGiMgZNzKCNBqCcQElwBUPuYfK7PzOoAADCAAYQABAAAYQADCAAAAAAAAAAA==

> <PUBCHEM_IUPAC_OPENEYE_NAME>
(46S)-7,8,9,12,13,14,25,26,27,30,31,32,35,36,37-pentadecahydroxy-46-[(2R,3R,4S,5S)-2,3,4-trihydroxy-5-(hydroxymethyl)tetrahydrofuran-2-yl]-3,18,21,41,43-pentaoxanonacyclo[27.13.3.138,42.02,20.05,10.011,16.023,28.033,45.034,39]hexatetraconta-5,7,9,11,13,15,23,25,27,29(45),30,32,34(39),35,37-pentadecaene-4,17,22,40,44-pentone

> <PUBCHEM_IUPAC_CAS_NAME>
(46S)-7,8,9,12,13,14,25,26,27,30,31,32,35,36,37-pentadecahydroxy-46-[(2R,3R,4S,5S)-2,3,4-trihydroxy-5-(hydroxymethyl)-2-oxolanyl]-3,18,21,41,43-pentaoxanonacyclo[27.13.3.138,42.02,20.05,10.011,16.023,28.033,45.034,39]hexatetraconta-5,7,9,11,13,15,23,25,27,29(45),30,32,34(39),35,37-pentadecaene-4,17,22,40,44-pentone

> <PUBCHEM_IUPAC_NAME_MARKUP>
(46<I>S</I>)-7,8,9,12,13,14,25,26,27,30,31,32,35,36,37-pentadecahydroxy-46-[(2<I>R</I>,3<I>R</I>,4<I>S</I>,5<I>S</I>)-2,3,4-trihydroxy-5-(hydroxymethyl)oxolan-2-yl]-3,18,21,41,43-pentaoxanonacyclo[27.13.3.1<SUP>38,42</SUP>.0<SUP>2,20</SUP>.0<SUP>5,10</SUP>.0<SUP>11,16</SUP>.0<SUP>23,28</SUP>.0<SUP>33,45</SUP>.0<SUP>34,39</SUP>]hexatetraconta-5,7,9,11,13,15,23,25,27,29(45),30,32,34(39),35,37-pentadecaene-4,17,22,40,44-pentone

> <PUBCHEM_IUPAC_NAME>
(46S)-7,8,9,12,13,14,25,26,27,30,31,32,35,36,37-pentadecahydroxy-46-[(2R,3R,4S,5S)-2,3,4-trihydroxy-5-(hydroxymethyl)oxolan-2-yl]-3,18,21,41,43-pentaoxanonacyclo[27.13.3.138,42.02,20.05,10.011,16.023,28.033,45.034,39]hexatetraconta-5,7,9,11,13,15,23,25,27,29(45),30,32,34(39),35,37-pentadecaene-4,17,22,40,44-pentone

> <PUBCHEM_IUPAC_SYSTEMATIC_NAME>
(46S)-46-[(2R,3R,4S,5S)-5-(hydroxymethyl)-2,3,4-tris(oxidanyl)oxolan-2-yl]-7,8,9,12,13,14,25,26,27,30,31,32,35,36,37-pentadecakis(oxidanyl)-3,18,21,41,43-pentaoxanonacyclo[27.13.3.138,42.02,20.05,10.011,16.023,28.033,45.034,39]hexatetraconta-5,7,9,11,13,15,23,25,27,29(45),30,32,34(39),35,37-pentadecaene-4,17,22,40,44-pentone

> <PUBCHEM_IUPAC_TRADITIONAL_NAME>
(46S)-7,8,9,12,13,14,25,26,27,30,31,32,35,36,37-pentadecahydroxy-46-[(2R,3R,4S,5S)-2,3,4-trihydroxy-5-methylol-tetrahydrofuran-2-yl]-3,18,21,41,43-pentaoxanonacyclo[27.13.3.138,42.02,20.05,10.011,16.023,28.033,45.034,39]hexatetraconta-5,7,9,11,13,15,23,25,27,29(45),30,32,34(39),35,37-pentadecaene-4,17,22,40,44-pentone

> <PUBCHEM_IUPAC_INCHI>
InChI=1S/C46H34O30/c47-4-12-27(54)40(64)46(70,76-12)23-22-21-19(33(60)36(63)34(22)61)18-20-17(31(58)35(62)32(18)59)16-8(3-11(50)26(53)30(16)57)42(66)72-13-5-71-41(65)6-1-9(48)24(51)28(55)14(6)15-7(2-10(49)25(52)29(15)56)43(67)73-37(13)39(75-44(20)68)38(23)74-45(21)69/h1-3,12-13,23,27,37-40,47-64,70H,4-5H2/t12-,13?,23-,27+,37?,38?,39?,40+,46+/m0/s1

> <PUBCHEM_IUPAC_INCHIKEY>
GCEXRPOQEVIITL-PNWRUQBSSA-N

> <PUBCHEM_XLOGP3_AA>
-0.5

> <PUBCHEM_EXACT_MASS>
1066.11348966

> <PUBCHEM_MOLECULAR_FORMULA>
C46H34O30

> <PUBCHEM_MOLECULAR_WEIGHT>
1066.7

> <PUBCHEM_SMILES>
C1C2C(C3C4[C@H](C5=C(C(=C(C(=C5C(=O)O4)C6=C(C(=C(C(=C6C(=O)O3)C7=C(C(=C(C=C7C(=O)O2)O)O)O)O)O)O)O)O)O)[C@@]8([C@@H]([C@@H]([C@@H](O8)CO)O)O)O)OC(=O)C9=CC(=C(C(=C9C2=C(C(=C(C=C2C(=O)O1)O)O)O)O)O)O

> <PUBCHEM_OPENEYE_CAN_SMILES>
C1C2C(C3C4C(C5=C(C(=C(C(=C5C(=O)O4)C6=C(C(=C(C(=C6C(=O)O3)C7=C(C(=C(C=C7C(=O)O2)O)O)O)O)O)O)O)O)O)C8(C(C(C(O8)CO)O)O)O)OC(=O)C9=CC(=C(C(=C9C2=C(C(=C(C=C2C(=O)O1)O)O)O)O)O)O

> <PUBCHEM_OPENEYE_ISO_SMILES>
C1C2C(C3C4[C@H](C5=C(C(=C(C(=C5C(=O)O4)C6=C(C(=C(C(=C6C(=O)O3)C7=C(C(=C(C=C7C(=O)O2)O)O)O)O)O)O)O)O)O)[C@@]8([C@@H]([C@@H]([C@@H](O8)CO)O)O)O)OC(=O)C9=CC(=C(C(=C9C2=C(C(=C(C=C2C(=O)O1)O)O)O)O)O)O

> <PUBCHEM_CACTVS_TPSA>
525

> <PUBCHEM_MONOISOTOPIC_WEIGHT>
1066.11348966

> <PUBCHEM_TOTAL_CHARGE>
0

> <PUBCHEM_HEAVY_ATOM_COUNT>
76

> <PUBCHEM_ATOM_DEF_STEREO_COUNT>
5

> <PUBCHEM_ATOM_UDEF_STEREO_COUNT>
4

> <PUBCHEM_BOND_DEF_STEREO_COUNT>
0

> <PUBCHEM_BOND_UDEF_STEREO_COUNT>
0

> <PUBCHEM_ISOTOPIC_ATOM_COUNT>
0

> <PUBCHEM_COMPONENT_COUNT>
1

> <PUBCHEM_CACTVS_TAUTO_COUNT>
-1

> <PUBCHEM_COORDINATE_TYPE>
1
5
255

> <PUBCHEM_BONDANNOTATIONS>
33  2  3
32  3  6
31  77  6
36  41  5
38  40  8
38  42  8
34  4  5
40  44  8
42  46  8
44  48  8
45  51  3
46  48  8
47  49  8
47  53  8
49  52  8
37  5  3
52  56  8
53  57  8
55  59  8
55  61  8
56  57  8
59  63  8
35  6  5
60  64  8
60  68  8
61  67  8
63  69  8
64  70  8
65  66  8
65  73  8
66  72  8
67  69  8
68  71  8
39  7  3
70  74  8
71  74  8
72  75  8
73  76  8
75  76  8

$$$$
