49830693
  -OEChem-03202500582D

 35 37  0     0  0  0  0  0  0999 V2000
    2.9176   -3.7673    0.0000 F   0  0  0  0  0  0  0  0  0  0  0  0
    9.8622    1.2673    0.0000 F   0  0  0  0  0  0  0  0  0  0  0  0
    9.4962    2.6333    0.0000 F   0  0  0  0  0  0  0  0  0  0  0  0
    8.4962    0.9013    0.0000 F   0  0  0  0  0  0  0  0  0  0  0  0
    6.3981    0.2673    0.0000 O   0  0  0  0  0  0  0  0  0  0  0  0
    4.6660    0.2673    0.0000 N   0  0  0  0  0  0  0  0  0  0  0  0
    4.6660   -2.7327    0.0000 N   0  0  0  0  0  0  0  0  0  0  0  0
    5.5321    1.7673    0.0000 N   0  0  0  0  0  0  0  0  0  0  0  0
    7.2641    1.7673    0.0000 N   0  0  0  0  0  0  0  0  0  0  0  0
    3.8000   -1.2327    0.0000 C   0  0  0  0  0  0  0  0  0  0  0  0
    4.6660   -0.7327    0.0000 C   0  0  0  0  0  0  0  0  0  0  0  0
    3.8000   -2.2327    0.0000 C   0  0  0  0  0  0  0  0  0  0  0  0
    2.9061   -0.6980    0.0000 C   0  0  0  0  0  0  0  0  0  0  0  0
    5.5321   -1.2327    0.0000 C   0  0  0  0  0  0  0  0  0  0  0  0
    2.9061   -2.7674    0.0000 C   0  0  0  0  0  0  0  0  0  0  0  0
    2.0000   -1.2119    0.0000 C   0  0  0  0  0  0  0  0  0  0  0  0
    2.0000   -2.2535    0.0000 C   0  0  0  0  0  0  0  0  0  0  0  0
    5.5321   -2.2327    0.0000 C   0  0  0  0  0  0  0  0  0  0  0  0
    5.5321    0.7673    0.0000 C   0  0  0  0  0  0  0  0  0  0  0  0
    6.3981    2.2673    0.0000 C   0  0  0  0  0  0  0  0  0  0  0  0
    8.1301    2.2673    0.0000 C   0  0  0  0  0  0  0  0  0  0  0  0
    6.3981    3.2673    0.0000 C   0  0  0  0  0  0  0  0  0  0  0  0
    8.1301    3.2673    0.0000 C   0  0  0  0  0  0  0  0  0  0  0  0
    7.2641    3.7673    0.0000 C   0  0  0  0  0  0  0  0  0  0  0  0
    8.9962    1.7673    0.0000 C   0  0  0  0  0  0  0  0  0  0  0  0
    2.9132   -0.0781    0.0000 H   0  0  0  0  0  0  0  0  0  0  0  0
    4.1291    0.5773    0.0000 H   0  0  0  0  0  0  0  0  0  0  0  0
    6.0690   -0.9227    0.0000 H   0  0  0  0  0  0  0  0  0  0  0  0
    1.4643   -0.8998    0.0000 H   0  0  0  0  0  0  0  0  0  0  0  0
    1.4643   -2.5656    0.0000 H   0  0  0  0  0  0  0  0  0  0  0  0
    6.0690   -2.5427    0.0000 H   0  0  0  0  0  0  0  0  0  0  0  0
    4.9951    2.0773    0.0000 H   0  0  0  0  0  0  0  0  0  0  0  0
    5.8612    3.5773    0.0000 H   0  0  0  0  0  0  0  0  0  0  0  0
    8.6671    3.5773    0.0000 H   0  0  0  0  0  0  0  0  0  0  0  0
    7.2641    4.3873    0.0000 H   0  0  0  0  0  0  0  0  0  0  0  0
  1 15  1  0  0  0  0
  2 25  1  0  0  0  0
  3 25  1  0  0  0  0
  4 25  1  0  0  0  0
  5 19  2  0  0  0  0
  6 11  1  0  0  0  0
  6 19  1  0  0  0  0
  6 27  1  0  0  0  0
  7 12  2  0  0  0  0
  7 18  1  0  0  0  0
  8 19  1  0  0  0  0
  8 20  1  0  0  0  0
  8 32  1  0  0  0  0
  9 20  1  0  0  0  0
  9 21  2  0  0  0  0
 10 11  2  0  0  0  0
 10 12  1  0  0  0  0
 10 13  1  0  0  0  0
 11 14  1  0  0  0  0
 12 15  1  0  0  0  0
 13 16  2  0  0  0  0
 13 26  1  0  0  0  0
 14 18  2  0  0  0  0
 14 28  1  0  0  0  0
 15 17  2  0  0  0  0
 16 17  1  0  0  0  0
 16 29  1  0  0  0  0
 17 30  1  0  0  0  0
 18 31  1  0  0  0  0
 20 22  2  0  0  0  0
 21 23  1  0  0  0  0
 21 25  1  0  0  0  0
 22 24  1  0  0  0  0
 22 33  1  0  0  0  0
 23 24  2  0  0  0  0
 23 34  1  0  0  0  0
 24 35  1  0  0  0  0
M  END
> <PUBCHEM_COMPOUND_CID>
49830693

> <PUBCHEM_COMPOUND_CANONICALIZED>
1

> <PUBCHEM_CACTVS_COMPLEXITY>
476

> <PUBCHEM_CACTVS_HBOND_ACCEPTOR>
7

> <PUBCHEM_CACTVS_HBOND_DONOR>
2

> <PUBCHEM_CACTVS_ROTATABLE_BOND>
2

> <PUBCHEM_CACTVS_SUBSKEYS>
AAADccB7ocAAAAAAAAAAAAAAAAAAAAAAAAA8WIAAAAAAAACx/AAAHwAQAAAADAjBHhw98PLIEACoAzZndACCgCkxAiAJ2CA4ZJiIIOLA0dGEJAholQLIyCcQgIAOAAAAAAACAAAAAAAAAAQAAAAAAAAAAA==

> <PUBCHEM_IUPAC_OPENEYE_NAME>
1-(8-fluoro-4-quinolyl)-3-[6-(trifluoromethyl)-2-pyridyl]urea

> <PUBCHEM_IUPAC_CAS_NAME>
1-(8-fluoro-4-quinolinyl)-3-[6-(trifluoromethyl)-2-pyridinyl]urea

> <PUBCHEM_IUPAC_NAME_MARKUP>
1-(8-fluoroquinolin-4-yl)-3-[6-(trifluoromethyl)pyridin-2-yl]urea

> <PUBCHEM_IUPAC_NAME>
1-(8-fluoroquinolin-4-yl)-3-[6-(trifluoromethyl)pyridin-2-yl]urea

> <PUBCHEM_IUPAC_SYSTEMATIC_NAME>
1-(8-fluoranylquinolin-4-yl)-3-[6-(trifluoromethyl)pyridin-2-yl]urea

> <PUBCHEM_IUPAC_TRADITIONAL_NAME>
1-(8-fluoro-4-quinolyl)-3-[6-(trifluoromethyl)-2-pyridyl]urea

> <PUBCHEM_IUPAC_INCHI>
InChI=1S/C16H10F4N4O/c17-10-4-1-3-9-11(7-8-21-14(9)10)22-15(25)24-13-6-2-5-12(23-13)16(18,19)20/h1-8H,(H2,21,22,23,24,25)

> <PUBCHEM_IUPAC_INCHIKEY>
RQJIDUOCLNMUHR-UHFFFAOYSA-N

> <PUBCHEM_XLOGP3_AA>
3

> <PUBCHEM_EXACT_MASS>
350.07907360

> <PUBCHEM_MOLECULAR_FORMULA>
C16H10F4N4O

> <PUBCHEM_MOLECULAR_WEIGHT>
350.27

> <PUBCHEM_SMILES>
C1=CC2=C(C=CN=C2C(=C1)F)NC(=O)NC3=CC=CC(=N3)C(F)(F)F

> <PUBCHEM_OPENEYE_CAN_SMILES>
C1=CC2=C(C=CN=C2C(=C1)F)NC(=O)NC3=CC=CC(=N3)C(F)(F)F

> <PUBCHEM_OPENEYE_ISO_SMILES>
C1=CC2=C(C=CN=C2C(=C1)F)NC(=O)NC3=CC=CC(=N3)C(F)(F)F

> <PUBCHEM_CACTVS_TPSA>
66.9

> <PUBCHEM_MONOISOTOPIC_WEIGHT>
350.07907360

> <PUBCHEM_TOTAL_CHARGE>
0

> <PUBCHEM_HEAVY_ATOM_COUNT>
25

> <PUBCHEM_ATOM_DEF_STEREO_COUNT>
0

> <PUBCHEM_ATOM_UDEF_STEREO_COUNT>
0

> <PUBCHEM_BOND_DEF_STEREO_COUNT>
0

> <PUBCHEM_BOND_UDEF_STEREO_COUNT>
0

> <PUBCHEM_ISOTOPIC_ATOM_COUNT>
0

> <PUBCHEM_COMPONENT_COUNT>
1

> <PUBCHEM_CACTVS_TAUTO_COUNT>
-1

> <PUBCHEM_COORDINATE_TYPE>
1
5
255

> <PUBCHEM_BONDANNOTATIONS>
10  11  8
10  12  8
10  13  8
11  14  8
12  15  8
13  16  8
14  18  8
15  17  8
16  17  8
20  22  8
21  23  8
22  24  8
23  24  8
7  12  8
7  18  8
9  20  8
9  21  8

$$$$
