49830597
  -OEChem-03202501462D

 50 53  0     1  0  0  0  0  0999 V2000
    7.2566   -0.0573    0.0000 O   0  0  0  0  0  0  0  0  0  0  0  0
    4.6783   -3.9803    0.0000 N   0  0  0  0  0  0  0  0  0  0  0  0
    6.6353   -1.9584    0.0000 N   0  0  0  0  0  0  0  0  0  0  0  0
    7.2101    2.5880    0.0000 N   0  0  0  0  0  0  0  0  0  0  0  0
   13.0811    3.8253    0.0000 N   0  0  0  0  0  0  0  0  0  0  0  0
    4.9889   -1.4203    0.0000 C   0  0  0  0  0  0  0  0  0  0  0  0
    5.9674   -1.2141    0.0000 C   0  0  3  0  0  0  0  0  0  0  0  0
    4.6783   -2.3708    0.0000 C   0  0  0  0  0  0  0  0  0  0  0  0
    3.7320   -2.6756    0.0000 C   0  0  0  0  0  0  0  0  0  0  0  0
    3.7320   -3.6756    0.0000 C   0  0  0  0  0  0  0  0  0  0  0  0
    6.2781   -0.2636    0.0000 C   0  0  0  0  0  0  0  0  0  0  0  0
    5.2619   -3.1756    0.0000 C   0  0  0  0  0  0  0  0  0  0  0  0
    2.8660   -2.1756    0.0000 C   0  0  0  0  0  0  0  0  0  0  0  0
    2.8660   -4.1756    0.0000 C   0  0  0  0  0  0  0  0  0  0  0  0
    2.0000   -2.6756    0.0000 C   0  0  0  0  0  0  0  0  0  0  0  0
    2.0000   -3.6756    0.0000 C   0  0  0  0  0  0  0  0  0  0  0  0
    7.5673    0.8932    0.0000 C   0  0  0  0  0  0  0  0  0  0  0  0
    8.5458    1.0994    0.0000 C   0  0  0  0  0  0  0  0  0  0  0  0
    6.8994    1.6375    0.0000 C   0  0  0  0  0  0  0  0  0  0  0  0
    8.8564    2.0499    0.0000 C   0  0  0  0  0  0  0  0  0  0  0  0
    8.1886    2.7942    0.0000 C   0  0  0  0  0  0  0  0  0  0  0  0
    9.8349    2.2561    0.0000 C   0  0  0  0  0  0  0  0  0  0  0  0
   10.1456    3.2066    0.0000 C   0  0  0  0  0  0  0  0  0  0  0  0
   11.1241    3.4129    0.0000 C   0  0  0  0  0  0  0  0  0  0  0  0
   11.4348    4.3634    0.0000 C   0  0  0  0  0  0  0  0  0  0  0  0
   11.7920    2.6686    0.0000 C   0  0  0  0  0  0  0  0  0  0  0  0
   12.4133    4.5696    0.0000 C   0  0  0  0  0  0  0  0  0  0  0  0
   12.7705    2.8748    0.0000 C   0  0  0  0  0  0  0  0  0  0  0  0
    4.9684   -0.8006    0.0000 H   0  0  0  0  0  0  0  0  0  0  0  0
    4.3751   -1.3330    0.0000 H   0  0  0  0  0  0  0  0  0  0  0  0
    5.7748   -1.8034    0.0000 H   0  0  0  0  0  0  0  0  0  0  0  0
    6.2575    0.3561    0.0000 H   0  0  0  0  0  0  0  0  0  0  0  0
    5.6643   -0.1762    0.0000 H   0  0  0  0  0  0  0  0  0  0  0  0
    5.8819   -3.1756    0.0000 H   0  0  0  0  0  0  0  0  0  0  0  0
    4.8709   -4.5696    0.0000 H   0  0  0  0  0  0  0  0  0  0  0  0
    2.8660   -1.5556    0.0000 H   0  0  0  0  0  0  0  0  0  0  0  0
    7.2420   -1.8305    0.0000 H   0  0  0  0  0  0  0  0  0  0  0  0
    6.4427   -2.5477    0.0000 H   0  0  0  0  0  0  0  0  0  0  0  0
    2.8660   -4.7956    0.0000 H   0  0  0  0  0  0  0  0  0  0  0  0
    1.4631   -2.3656    0.0000 H   0  0  0  0  0  0  0  0  0  0  0  0
    1.4631   -3.9856    0.0000 H   0  0  0  0  0  0  0  0  0  0  0  0
    8.9598    0.6379    0.0000 H   0  0  0  0  0  0  0  0  0  0  0  0
    6.2928    1.5096    0.0000 H   0  0  0  0  0  0  0  0  0  0  0  0
    8.3812    3.3835    0.0000 H   0  0  0  0  0  0  0  0  0  0  0  0
   10.2490    1.7947    0.0000 H   0  0  0  0  0  0  0  0  0  0  0  0
    9.7315    3.6681    0.0000 H   0  0  0  0  0  0  0  0  0  0  0  0
   11.0207    4.8249    0.0000 H   0  0  0  0  0  0  0  0  0  0  0  0
   11.5993    2.0792    0.0000 H   0  0  0  0  0  0  0  0  0  0  0  0
   12.6059    5.1589    0.0000 H   0  0  0  0  0  0  0  0  0  0  0  0
   13.1845    2.4133    0.0000 H   0  0  0  0  0  0  0  0  0  0  0  0
  1 11  1  0  0  0  0
  1 17  1  0  0  0  0
  2 10  1  0  0  0  0
  2 12  1  0  0  0  0
  2 35  1  0  0  0  0
  3  7  1  0  0  0  0
  3 37  1  0  0  0  0
  3 38  1  0  0  0  0
  4 19  1  0  0  0  0
  4 21  2  0  0  0  0
  5 27  2  0  0  0  0
  5 28  1  0  0  0  0
  6  7  1  0  0  0  0
  6  8  1  0  0  0  0
  6 29  1  0  0  0  0
  6 30  1  0  0  0  0
  7 11  1  0  0  0  0
  7 31  1  0  0  0  0
  8  9  1  0  0  0  0
  8 12  2  0  0  0  0
  9 10  1  0  0  0  0
  9 13  2  0  0  0  0
 10 14  2  0  0  0  0
 11 32  1  0  0  0  0
 11 33  1  0  0  0  0
 12 34  1  0  0  0  0
 13 15  1  0  0  0  0
 13 36  1  0  0  0  0
 14 16  1  0  0  0  0
 14 39  1  0  0  0  0
 15 16  2  0  0  0  0
 15 40  1  0  0  0  0
 16 41  1  0  0  0  0
 17 18  1  0  0  0  0
 17 19  2  0  0  0  0
 18 20  2  0  0  0  0
 18 42  1  0  0  0  0
 19 43  1  0  0  0  0
 20 21  1  0  0  0  0
 20 22  1  0  0  0  0
 21 44  1  0  0  0  0
 22 23  2  3  0  0  0
 22 45  1  0  0  0  0
 23 24  1  0  0  0  0
 23 46  1  0  0  0  0
 24 25  2  0  0  0  0
 24 26  1  0  0  0  0
 25 27  1  0  0  0  0
 25 47  1  0  0  0  0
 26 28  2  0  0  0  0
 26 48  1  0  0  0  0
 27 49  1  0  0  0  0
 28 50  1  0  0  0  0
M  END
> <PUBCHEM_COMPOUND_CID>
49830597

> <PUBCHEM_COMPOUND_CANONICALIZED>
1

> <PUBCHEM_CACTVS_COMPLEXITY>
493

> <PUBCHEM_CACTVS_HBOND_ACCEPTOR>
4

> <PUBCHEM_CACTVS_HBOND_DONOR>
2

> <PUBCHEM_CACTVS_ROTATABLE_BOND>
7

> <PUBCHEM_CACTVS_SUBSKEYS>
AAADceB7oAAAAAAAAAAAAAAAAAAAAWAAAAA8WIAAAAAAAFgB/gAAHgAQAAAADCzhngY8xvLJlACgAzRnRASCiCAxYiAI2aA/bJgOJuLEsZuHOCjk0BHY6Aew0PIOgAAAAAACAAAAAAAAAAQAAAAAAAAAAA==

> <PUBCHEM_IUPAC_OPENEYE_NAME>
1-(1H-indol-3-yl)-3-[[5-[2-(4-pyridyl)vinyl]-3-pyridyl]oxy]propan-2-amine

> <PUBCHEM_IUPAC_CAS_NAME>
1-(1H-indol-3-yl)-3-[[5-(2-pyridin-4-ylethenyl)-3-pyridinyl]oxy]-2-propanamine

> <PUBCHEM_IUPAC_NAME_MARKUP>
1-(1<I>H</I>-indol-3-yl)-3-[5-(2-pyridin-4-ylethenyl)pyridin-3-yl]oxypropan-2-amine

> <PUBCHEM_IUPAC_NAME>
1-(1H-indol-3-yl)-3-[5-(2-pyridin-4-ylethenyl)pyridin-3-yl]oxypropan-2-amine

> <PUBCHEM_IUPAC_SYSTEMATIC_NAME>
1-(1H-indol-3-yl)-3-[5-(2-pyridin-4-ylethenyl)pyridin-3-yl]oxy-propan-2-amine

> <PUBCHEM_IUPAC_TRADITIONAL_NAME>
[1-(1H-indol-3-ylmethyl)-2-[[5-[2-(4-pyridyl)vinyl]-3-pyridyl]oxy]ethyl]amine

> <PUBCHEM_IUPAC_INCHI>
InChI=1S/C23H22N4O/c24-20(12-19-14-27-23-4-2-1-3-22(19)23)16-28-21-11-18(13-26-15-21)6-5-17-7-9-25-10-8-17/h1-11,13-15,20,27H,12,16,24H2

> <PUBCHEM_IUPAC_INCHIKEY>
SGHXFHRRWFLILP-UHFFFAOYSA-N

> <PUBCHEM_XLOGP3_AA>
3.2

> <PUBCHEM_EXACT_MASS>
370.17936134

> <PUBCHEM_MOLECULAR_FORMULA>
C23H22N4O

> <PUBCHEM_MOLECULAR_WEIGHT>
370.4

> <PUBCHEM_SMILES>
C1=CC=C2C(=C1)C(=CN2)CC(COC3=CN=CC(=C3)C=CC4=CC=NC=C4)N

> <PUBCHEM_OPENEYE_CAN_SMILES>
C1=CC=C2C(=C1)C(=CN2)CC(COC3=CN=CC(=C3)C=CC4=CC=NC=C4)N

> <PUBCHEM_OPENEYE_ISO_SMILES>
C1=CC=C2C(=C1)C(=CN2)CC(COC3=CN=CC(=C3)C=CC4=CC=NC=C4)N

> <PUBCHEM_CACTVS_TPSA>
76.8

> <PUBCHEM_MONOISOTOPIC_WEIGHT>
370.17936134

> <PUBCHEM_TOTAL_CHARGE>
0

> <PUBCHEM_HEAVY_ATOM_COUNT>
28

> <PUBCHEM_ATOM_DEF_STEREO_COUNT>
0

> <PUBCHEM_ATOM_UDEF_STEREO_COUNT>
1

> <PUBCHEM_BOND_DEF_STEREO_COUNT>
0

> <PUBCHEM_BOND_UDEF_STEREO_COUNT>
1

> <PUBCHEM_ISOTOPIC_ATOM_COUNT>
0

> <PUBCHEM_COMPONENT_COUNT>
1

> <PUBCHEM_CACTVS_TAUTO_COUNT>
-1

> <PUBCHEM_COORDINATE_TYPE>
1
5
255

> <PUBCHEM_BONDANNOTATIONS>
10  14  8
13  15  8
14  16  8
15  16  8
17  18  8
17  19  8
18  20  8
2  10  8
2  12  8
20  21  8
22  23  1
24  25  8
24  26  8
25  27  8
26  28  8
7  3  3
4  19  8
4  21  8
5  27  8
5  28  8
8  12  8
8  9  8
9  10  8
9  13  8

$$$$
