49830890
  -OEChem-03202502352D

 29 31  0     0  0  0  0  0  0999 V2000
    6.3981   -2.0173    0.0000 Cl  0  0  0  0  0  0  0  0  0  0  0  0
    2.8680   -1.0414    0.0000 S   0  0  0  0  0  0  0  0  0  0  0  0
    8.1465    2.0173    0.0000 O   0  0  0  0  0  0  0  0  0  0  0  0
    9.0641    0.5035    0.0000 N   0  0  0  0  0  0  0  0  0  0  0  0
    6.3981    0.9827    0.0000 N   0  0  0  0  0  0  0  0  0  0  0  0
    8.1580   -1.0520    0.0000 C   0  0  0  0  0  0  0  0  0  0  0  0
    7.2641   -0.5173    0.0000 C   0  0  0  0  0  0  0  0  0  0  0  0
    9.0641   -0.5381    0.0000 C   0  0  0  0  0  0  0  0  0  0  0  0
    7.2641    0.4827    0.0000 C   0  0  0  0  0  0  0  0  0  0  0  0
    6.3981   -1.0173    0.0000 C   0  0  0  0  0  0  0  0  0  0  0  0
    5.5320   -0.5173    0.0000 C   0  0  0  0  0  0  0  0  0  0  0  0
    5.5320    0.4827    0.0000 C   0  0  0  0  0  0  0  0  0  0  0  0
    8.1580    1.0174    0.0000 C   0  0  0  0  0  0  0  0  0  0  0  0
    4.6381   -1.0520    0.0000 C   0  0  0  0  0  0  0  0  0  0  0  0
    4.6381    1.0174    0.0000 C   0  0  0  0  0  0  0  0  0  0  0  0
    3.7320   -0.5381    0.0000 C   0  0  0  0  0  0  0  0  0  0  0  0
    3.7320    0.5035    0.0000 C   0  0  0  0  0  0  0  0  0  0  0  0
    2.0000   -0.5448    0.0000 C   0  0  0  0  0  0  0  0  0  0  0  0
    7.7534   -1.5218    0.0000 H   0  0  0  0  0  0  0  0  0  0  0  0
    8.5517   -1.5310    0.0000 H   0  0  0  0  0  0  0  0  0  0  0  0
    9.2732   -1.1218    0.0000 H   0  0  0  0  0  0  0  0  0  0  0  0
    9.6750   -0.4320    0.0000 H   0  0  0  0  0  0  0  0  0  0  0  0
    9.5998    0.8156    0.0000 H   0  0  0  0  0  0  0  0  0  0  0  0
    4.6453   -1.6719    0.0000 H   0  0  0  0  0  0  0  0  0  0  0  0
    4.6453    1.6373    0.0000 H   0  0  0  0  0  0  0  0  0  0  0  0
    3.1963    0.8156    0.0000 H   0  0  0  0  0  0  0  0  0  0  0  0
    2.3079   -0.0067    0.0000 H   0  0  0  0  0  0  0  0  0  0  0  0
    1.4619   -0.2369    0.0000 H   0  0  0  0  0  0  0  0  0  0  0  0
    1.6921   -1.0829    0.0000 H   0  0  0  0  0  0  0  0  0  0  0  0
  1 10  1  0  0  0  0
  2 16  1  0  0  0  0
  2 18  1  0  0  0  0
  3 13  2  0  0  0  0
  4  8  1  0  0  0  0
  4 13  1  0  0  0  0
  4 23  1  0  0  0  0
  5  9  2  0  0  0  0
  5 12  1  0  0  0  0
  6  7  1  0  0  0  0
  6  8  1  0  0  0  0
  6 19  1  0  0  0  0
  6 20  1  0  0  0  0
  7  9  1  0  0  0  0
  7 10  2  0  0  0  0
  8 21  1  0  0  0  0
  8 22  1  0  0  0  0
  9 13  1  0  0  0  0
 10 11  1  0  0  0  0
 11 12  2  0  0  0  0
 11 14  1  0  0  0  0
 12 15  1  0  0  0  0
 14 16  2  0  0  0  0
 14 24  1  0  0  0  0
 15 17  2  0  0  0  0
 15 25  1  0  0  0  0
 16 17  1  0  0  0  0
 17 26  1  0  0  0  0
 18 27  1  0  0  0  0
 18 28  1  0  0  0  0
 18 29  1  0  0  0  0
M  END
> <PUBCHEM_COMPOUND_CID>
49830890

> <PUBCHEM_COMPOUND_CANONICALIZED>
1

> <PUBCHEM_CACTVS_COMPLEXITY>
341

> <PUBCHEM_CACTVS_HBOND_ACCEPTOR>
3

> <PUBCHEM_CACTVS_HBOND_DONOR>
1

> <PUBCHEM_CACTVS_ROTATABLE_BOND>
1

> <PUBCHEM_CACTVS_SUBSKEYS>
AAADccBzIABEAAAAAAAAAAAAAAAAAAAAAAA8WIAAAAAAAACx8AAAHgYQAAAADArB3iSywfLIEAioAyVyVACCgCAnDjAImLm4ZtgIYPLhl7GUIQhglgDIyQcYicCOAAQAgAACAAAACAEAAAQAAAAAAAAAAA==

> <PUBCHEM_IUPAC_OPENEYE_NAME>
5-chloro-7-methylsulfanyl-3,4-dihydro-2H-benzo[b][1,7]naphthyridin-1-one

> <PUBCHEM_IUPAC_CAS_NAME>
5-chloro-7-(methylthio)-3,4-dihydro-2H-benzo[b][1,7]naphthyridin-1-one

> <PUBCHEM_IUPAC_NAME_MARKUP>
5-chloro-7-methylsulfanyl-3,4-dihydro-2<I>H</I>-benzo[b][1,7]naphthyridin-1-one

> <PUBCHEM_IUPAC_NAME>
5-chloro-7-methylsulfanyl-3,4-dihydro-2H-benzo[b][1,7]naphthyridin-1-one

> <PUBCHEM_IUPAC_SYSTEMATIC_NAME>
5-chloranyl-7-methylsulfanyl-3,4-dihydro-2H-benzo[b][1,7]naphthyridin-1-one

> <PUBCHEM_IUPAC_TRADITIONAL_NAME>
5-chloro-7-(methylthio)-3,4-dihydro-2H-benzo[b][1,7]naphthyridin-1-one

> <PUBCHEM_IUPAC_INCHI>
InChI=1S/C13H11ClN2OS/c1-18-7-2-3-10-9(6-7)11(14)8-4-5-15-13(17)12(8)16-10/h2-3,6H,4-5H2,1H3,(H,15,17)

> <PUBCHEM_IUPAC_INCHIKEY>
FSWFKKQQSQHIRZ-UHFFFAOYSA-N

> <PUBCHEM_XLOGP3_AA>
3

> <PUBCHEM_EXACT_MASS>
278.0280618

> <PUBCHEM_MOLECULAR_FORMULA>
C13H11ClN2OS

> <PUBCHEM_MOLECULAR_WEIGHT>
278.76

> <PUBCHEM_SMILES>
CSC1=CC2=C(C=C1)N=C3C(=C2Cl)CCNC3=O

> <PUBCHEM_OPENEYE_CAN_SMILES>
CSC1=CC2=C(C=C1)N=C3C(=C2Cl)CCNC3=O

> <PUBCHEM_OPENEYE_ISO_SMILES>
CSC1=CC2=C(C=C1)N=C3C(=C2Cl)CCNC3=O

> <PUBCHEM_CACTVS_TPSA>
67.3

> <PUBCHEM_MONOISOTOPIC_WEIGHT>
278.0280618

> <PUBCHEM_TOTAL_CHARGE>
0

> <PUBCHEM_HEAVY_ATOM_COUNT>
18

> <PUBCHEM_ATOM_DEF_STEREO_COUNT>
0

> <PUBCHEM_ATOM_UDEF_STEREO_COUNT>
0

> <PUBCHEM_BOND_DEF_STEREO_COUNT>
0

> <PUBCHEM_BOND_UDEF_STEREO_COUNT>
0

> <PUBCHEM_ISOTOPIC_ATOM_COUNT>
0

> <PUBCHEM_COMPONENT_COUNT>
1

> <PUBCHEM_CACTVS_TAUTO_COUNT>
-1

> <PUBCHEM_COORDINATE_TYPE>
1
5
255

> <PUBCHEM_BONDANNOTATIONS>
10  11  8
11  12  8
11  14  8
12  15  8
14  16  8
15  17  8
16  17  8
5  12  8
5  9  8
7  10  8
7  9  8

$$$$
