49830717
  -OEChem-03202503202D

 42 44  0     1  0  0  0  0  0999 V2000
    6.3776    1.9920    0.0000 S   0  0  0  0  0  0  0  0  0  0  0  0
    2.0000   -2.6012    0.0000 O   0  0  0  0  0  0  0  0  0  0  0  0
    3.7320    2.3988    0.0000 O   0  0  0  0  0  0  0  0  0  0  0  0
    4.5981    0.8988    0.0000 N   0  0  0  0  0  0  0  0  0  0  0  0
   10.0303    2.4216    0.0000 N   0  0  0  0  0  0  0  0  0  0  0  0
    3.7320    0.3988    0.0000 C   0  0  3  0  0  0  0  0  0  0  0  0
    3.7320   -0.6012    0.0000 C   0  0  0  0  0  0  0  0  0  0  0  0
    2.8660    0.8988    0.0000 C   0  0  0  0  0  0  0  0  0  0  0  0
    2.8660   -1.1012    0.0000 C   0  0  0  0  0  0  0  0  0  0  0  0
    4.5981   -1.1012    0.0000 C   0  0  0  0  0  0  0  0  0  0  0  0
    4.5981    1.8988    0.0000 C   0  0  0  0  0  0  0  0  0  0  0  0
    5.4641    2.3988    0.0000 C   0  0  0  0  0  0  0  0  0  0  0  0
    2.8660   -2.1012    0.0000 C   0  0  0  0  0  0  0  0  0  0  0  0
    4.5981   -2.1012    0.0000 C   0  0  0  0  0  0  0  0  0  0  0  0
    7.0468    2.7352    0.0000 C   0  0  0  0  0  0  0  0  0  0  0  0
    3.7320   -2.6012    0.0000 C   0  0  0  0  0  0  0  0  0  0  0  0
    5.5686    3.3933    0.0000 C   0  0  0  0  0  0  0  0  0  0  0  0
    6.5468    3.6012    0.0000 C   0  0  0  0  0  0  0  0  0  0  0  0
    8.0413    2.6307    0.0000 C   0  0  0  0  0  0  0  0  0  0  0  0
    8.4480    1.7171    0.0000 C   0  0  0  0  0  0  0  0  0  0  0  0
    8.6291    3.4397    0.0000 C   0  0  0  0  0  0  0  0  0  0  0  0
    9.4426    1.6126    0.0000 C   0  0  0  0  0  0  0  0  0  0  0  0
    9.6236    3.3352    0.0000 C   0  0  0  0  0  0  0  0  0  0  0  0
    2.0000   -3.6012    0.0000 C   0  0  0  0  0  0  0  0  0  0  0  0
    3.7320    1.0188    0.0000 H   0  0  0  0  0  0  0  0  0  0  0  0
    5.1350    0.5888    0.0000 H   0  0  0  0  0  0  0  0  0  0  0  0
    3.1760    1.4357    0.0000 H   0  0  0  0  0  0  0  0  0  0  0  0
    2.3291    1.2088    0.0000 H   0  0  0  0  0  0  0  0  0  0  0  0
    2.5560    0.3618    0.0000 H   0  0  0  0  0  0  0  0  0  0  0  0
    2.3291   -0.7912    0.0000 H   0  0  0  0  0  0  0  0  0  0  0  0
    5.1350   -0.7912    0.0000 H   0  0  0  0  0  0  0  0  0  0  0  0
    5.1350   -2.4112    0.0000 H   0  0  0  0  0  0  0  0  0  0  0  0
    3.7320   -3.2212    0.0000 H   0  0  0  0  0  0  0  0  0  0  0  0
    5.1079    3.8082    0.0000 H   0  0  0  0  0  0  0  0  0  0  0  0
    6.7990    4.1676    0.0000 H   0  0  0  0  0  0  0  0  0  0  0  0
    8.0836    1.2155    0.0000 H   0  0  0  0  0  0  0  0  0  0  0  0
    8.3769    4.0061    0.0000 H   0  0  0  0  0  0  0  0  0  0  0  0
    9.6947    1.0462    0.0000 H   0  0  0  0  0  0  0  0  0  0  0  0
    9.9880    3.8367    0.0000 H   0  0  0  0  0  0  0  0  0  0  0  0
    1.3800   -3.6012    0.0000 H   0  0  0  0  0  0  0  0  0  0  0  0
    2.0000   -4.2212    0.0000 H   0  0  0  0  0  0  0  0  0  0  0  0
    2.6200   -3.6012    0.0000 H   0  0  0  0  0  0  0  0  0  0  0  0
  1 12  1  0  0  0  0
  1 15  1  0  0  0  0
  2 13  1  0  0  0  0
  2 24  1  0  0  0  0
  3 11  2  0  0  0  0
  4  6  1  0  0  0  0
  4 11  1  0  0  0  0
  4 26  1  0  0  0  0
  5 22  2  0  0  0  0
  5 23  1  0  0  0  0
  6  7  1  0  0  0  0
  6  8  1  0  0  0  0
  6 25  1  0  0  0  0
  7  9  2  0  0  0  0
  7 10  1  0  0  0  0
  8 27  1  0  0  0  0
  8 28  1  0  0  0  0
  8 29  1  0  0  0  0
  9 13  1  0  0  0  0
  9 30  1  0  0  0  0
 10 14  2  0  0  0  0
 10 31  1  0  0  0  0
 11 12  1  0  0  0  0
 12 17  2  0  0  0  0
 13 16  2  0  0  0  0
 14 16  1  0  0  0  0
 14 32  1  0  0  0  0
 15 18  2  0  0  0  0
 15 19  1  0  0  0  0
 16 33  1  0  0  0  0
 17 18  1  0  0  0  0
 17 34  1  0  0  0  0
 18 35  1  0  0  0  0
 19 20  2  0  0  0  0
 19 21  1  0  0  0  0
 20 22  1  0  0  0  0
 20 36  1  0  0  0  0
 21 23  2  0  0  0  0
 21 37  1  0  0  0  0
 22 38  1  0  0  0  0
 23 39  1  0  0  0  0
 24 40  1  0  0  0  0
 24 41  1  0  0  0  0
 24 42  1  0  0  0  0
M  END
> <PUBCHEM_COMPOUND_CID>
49830717

> <PUBCHEM_COMPOUND_CANONICALIZED>
1

> <PUBCHEM_CACTVS_COMPLEXITY>
414

> <PUBCHEM_CACTVS_HBOND_ACCEPTOR>
4

> <PUBCHEM_CACTVS_HBOND_DONOR>
1

> <PUBCHEM_CACTVS_ROTATABLE_BOND>
5

> <PUBCHEM_CACTVS_SUBSKEYS>
AAADceB7MABAAAAAAAAAAAAAAAAAASAAAAA8QAAAAAAAAAAB8AAAHgQQAAAADCzB2gY+h5LIFAisAjF3VACDiKA1KjBI2Lk+bNgMJnLktZuEMShk1hHo6Ye4yPCOAAABAAAAAAAAAAIAAAAAAAAAAAAAAA==

> <PUBCHEM_IUPAC_OPENEYE_NAME>
N-[1-(3-methoxyphenyl)ethyl]-5-(4-pyridyl)thiophene-2-carboxamide

> <PUBCHEM_IUPAC_CAS_NAME>
N-[1-(3-methoxyphenyl)ethyl]-5-pyridin-4-yl-2-thiophenecarboxamide

> <PUBCHEM_IUPAC_NAME_MARKUP>
<I>N</I>-[1-(3-methoxyphenyl)ethyl]-5-pyridin-4-ylthiophene-2-carboxamide

> <PUBCHEM_IUPAC_NAME>
N-[1-(3-methoxyphenyl)ethyl]-5-pyridin-4-ylthiophene-2-carboxamide

> <PUBCHEM_IUPAC_SYSTEMATIC_NAME>
N-[1-(3-methoxyphenyl)ethyl]-5-pyridin-4-yl-thiophene-2-carboxamide

> <PUBCHEM_IUPAC_TRADITIONAL_NAME>
N-[1-(3-methoxyphenyl)ethyl]-5-(4-pyridyl)thiophene-2-carboxamide

> <PUBCHEM_IUPAC_INCHI>
InChI=1S/C19H18N2O2S/c1-13(15-4-3-5-16(12-15)23-2)21-19(22)18-7-6-17(24-18)14-8-10-20-11-9-14/h3-13H,1-2H3,(H,21,22)

> <PUBCHEM_IUPAC_INCHIKEY>
SJLQDZDKTVBBLP-UHFFFAOYSA-N

> <PUBCHEM_XLOGP3_AA>
3.7

> <PUBCHEM_EXACT_MASS>
338.10889899

> <PUBCHEM_MOLECULAR_FORMULA>
C19H18N2O2S

> <PUBCHEM_MOLECULAR_WEIGHT>
338.4

> <PUBCHEM_SMILES>
CC(C1=CC(=CC=C1)OC)NC(=O)C2=CC=C(S2)C3=CC=NC=C3

> <PUBCHEM_OPENEYE_CAN_SMILES>
CC(C1=CC(=CC=C1)OC)NC(=O)C2=CC=C(S2)C3=CC=NC=C3

> <PUBCHEM_OPENEYE_ISO_SMILES>
CC(C1=CC(=CC=C1)OC)NC(=O)C2=CC=C(S2)C3=CC=NC=C3

> <PUBCHEM_CACTVS_TPSA>
79.5

> <PUBCHEM_MONOISOTOPIC_WEIGHT>
338.10889899

> <PUBCHEM_TOTAL_CHARGE>
0

> <PUBCHEM_HEAVY_ATOM_COUNT>
24

> <PUBCHEM_ATOM_DEF_STEREO_COUNT>
0

> <PUBCHEM_ATOM_UDEF_STEREO_COUNT>
1

> <PUBCHEM_BOND_DEF_STEREO_COUNT>
0

> <PUBCHEM_BOND_UDEF_STEREO_COUNT>
0

> <PUBCHEM_ISOTOPIC_ATOM_COUNT>
0

> <PUBCHEM_COMPONENT_COUNT>
1

> <PUBCHEM_CACTVS_TAUTO_COUNT>
-1

> <PUBCHEM_COORDINATE_TYPE>
1
5
255

> <PUBCHEM_BONDANNOTATIONS>
1  12  8
1  15  8
10  14  8
12  17  8
13  16  8
14  16  8
15  18  8
17  18  8
19  20  8
19  21  8
20  22  8
21  23  8
5  22  8
5  23  8
6  8  3
7  10  8
7  9  8
9  13  8

$$$$
