44427519
  -OEChem-03202506032D

 78 83  0     0  0  0  0  0  0999 V2000
   19.5059    2.6920    0.0000 O   0  0  0  0  0  0  0  0  0  0  0  0
   13.2624    2.5546    0.0000 O   0  0  0  0  0  0  0  0  0  0  0  0
    7.3179    3.0450    0.0000 O   0  0  0  0  0  0  0  0  0  0  0  0
    2.2263   -0.8173    0.0000 O   0  0  0  0  0  0  0  0  0  0  0  0
   17.5970    2.0952    0.0000 N   0  0  0  0  0  0  0  0  0  0  0  0
   13.7793    0.9015    0.0000 N   0  0  0  0  0  0  0  0  0  0  0  0
    8.2517   -0.0466    0.0000 N   0  0  0  0  0  0  0  0  0  0  0  0
    8.7518    2.1440    0.0000 N   0  0  0  0  0  0  0  0  0  0  0  0
    2.6788   -2.7655    0.0000 N   0  0  0  0  0  0  0  0  0  0  0  0
   12.0892    1.2804    0.0000 C   0  0  0  0  0  0  0  0  0  0  0  0
   11.1348    0.9820    0.0000 C   0  0  0  0  0  0  0  0  0  0  0  0
   12.3876    0.3260    0.0000 C   0  0  0  0  0  0  0  0  0  0  0  0
   11.7908    2.2348    0.0000 C   0  0  0  0  0  0  0  0  0  0  0  0
   13.0436    1.5788    0.0000 C   0  0  0  0  0  0  0  0  0  0  0  0
   10.3657    1.6845    0.0000 C   0  0  0  0  0  0  0  0  0  0  0  0
    9.3752    1.3622    0.0000 C   0  0  0  0  0  0  0  0  0  0  0  0
   10.9030   -0.0336    0.0000 C   0  0  0  0  0  0  0  0  0  0  0  0
    9.1527    0.3873    0.0000 C   0  0  0  0  0  0  0  0  0  0  0  0
   17.8158    3.0710    0.0000 C   0  0  0  0  0  0  0  0  0  0  0  0
   18.3327    1.4178    0.0000 C   0  0  0  0  0  0  0  0  0  0  0  0
   16.6426    1.7968    0.0000 C   0  0  0  0  0  0  0  0  0  0  0  0
    9.9053   -0.3329    0.0000 C   0  0  0  0  0  0  0  0  0  0  0  0
   18.7702    3.3694    0.0000 C   0  0  0  0  0  0  0  0  0  0  0  0
   19.2871    1.7163    0.0000 C   0  0  0  0  0  0  0  0  0  0  0  0
   14.7337    1.1999    0.0000 C   0  0  0  0  0  0  0  0  0  0  0  0
    7.3508    0.3873    0.0000 C   0  0  0  0  0  0  0  0  0  0  0  0
    7.1283    1.3622    0.0000 C   0  0  0  0  0  0  0  0  0  0  0  0
   15.9069    2.4741    0.0000 C   0  0  0  0  0  0  0  0  0  0  0  0
   16.4238    0.8210    0.0000 C   0  0  0  0  0  0  0  0  0  0  0  0
   14.9525    2.1757    0.0000 C   0  0  0  0  0  0  0  0  0  0  0  0
   15.4694    0.5225    0.0000 C   0  0  0  0  0  0  0  0  0  0  0  0
    7.7518    2.1441    0.0000 C   0  0  0  0  0  0  0  0  0  0  0  0
    6.5982   -0.3329    0.0000 C   0  0  0  0  0  0  0  0  0  0  0  0
    5.6005   -0.0335    0.0000 C   0  0  0  0  0  0  0  0  0  0  0  0
    6.1378    1.6846    0.0000 C   0  0  0  0  0  0  0  0  0  0  0  0
    5.3688    0.9820    0.0000 C   0  0  0  0  0  0  0  0  0  0  0  0
    4.8701   -0.7165    0.0000 C   0  0  0  0  0  0  0  0  0  0  0  0
    3.9134   -0.4254    0.0000 C   0  0  0  0  0  0  0  0  0  0  0  0
    5.0964   -1.6906    0.0000 C   0  0  0  0  0  0  0  0  0  0  0  0
    3.1830   -1.1084    0.0000 C   0  0  0  0  0  0  0  0  0  0  0  0
    4.3659   -2.3736    0.0000 C   0  0  0  0  0  0  0  0  0  0  0  0
    3.4092   -2.0825    0.0000 C   0  0  0  0  0  0  0  0  0  0  0  0
    2.0000    0.1567    0.0000 C   0  0  0  0  0  0  0  0  0  0  0  0
   11.7959    0.1409    0.0000 H   0  0  0  0  0  0  0  0  0  0  0  0
   12.5726   -0.2658    0.0000 H   0  0  0  0  0  0  0  0  0  0  0  0
   12.9794    0.5110    0.0000 H   0  0  0  0  0  0  0  0  0  0  0  0
   12.3825    2.4198    0.0000 H   0  0  0  0  0  0  0  0  0  0  0  0
   11.6057    2.8266    0.0000 H   0  0  0  0  0  0  0  0  0  0  0  0
   11.1990    2.0498    0.0000 H   0  0  0  0  0  0  0  0  0  0  0  0
   10.4967    2.2906    0.0000 H   0  0  0  0  0  0  0  0  0  0  0  0
   11.3558   -0.4570    0.0000 H   0  0  0  0  0  0  0  0  0  0  0  0
   17.7363    3.6858    0.0000 H   0  0  0  0  0  0  0  0  0  0  0  0
   17.1964    3.0995    0.0000 H   0  0  0  0  0  0  0  0  0  0  0  0
   17.8399    1.0416    0.0000 H   0  0  0  0  0  0  0  0  0  0  0  0
   18.6176    0.8672    0.0000 H   0  0  0  0  0  0  0  0  0  0  0  0
    9.7603   -0.9357    0.0000 H   0  0  0  0  0  0  0  0  0  0  0  0
   13.6436    0.2965    0.0000 H   0  0  0  0  0  0  0  0  0  0  0  0
   19.2630    3.7456    0.0000 H   0  0  0  0  0  0  0  0  0  0  0  0
   18.4852    3.9200    0.0000 H   0  0  0  0  0  0  0  0  0  0  0  0
   19.3666    1.1014    0.0000 H   0  0  0  0  0  0  0  0  0  0  0  0
   19.9064    1.6877    0.0000 H   0  0  0  0  0  0  0  0  0  0  0  0
    8.2517   -0.6666    0.0000 H   0  0  0  0  0  0  0  0  0  0  0  0
    9.0208    2.7027    0.0000 H   0  0  0  0  0  0  0  0  0  0  0  0
   16.0425    3.0791    0.0000 H   0  0  0  0  0  0  0  0  0  0  0  0
   16.8799    0.4010    0.0000 H   0  0  0  0  0  0  0  0  0  0  0  0
   14.4964    2.5956    0.0000 H   0  0  0  0  0  0  0  0  0  0  0  0
   15.3337   -0.0824    0.0000 H   0  0  0  0  0  0  0  0  0  0  0  0
    6.7432   -0.9357    0.0000 H   0  0  0  0  0  0  0  0  0  0  0  0
    6.0068    2.2906    0.0000 H   0  0  0  0  0  0  0  0  0  0  0  0
    4.7770    1.1670    0.0000 H   0  0  0  0  0  0  0  0  0  0  0  0
    3.7731    0.1785    0.0000 H   0  0  0  0  0  0  0  0  0  0  0  0
    5.6895   -1.8710    0.0000 H   0  0  0  0  0  0  0  0  0  0  0  0
    4.5062   -2.9775    0.0000 H   0  0  0  0  0  0  0  0  0  0  0  0
    2.8191   -3.3694    0.0000 H   0  0  0  0  0  0  0  0  0  0  0  0
    2.0857   -2.5850    0.0000 H   0  0  0  0  0  0  0  0  0  0  0  0
    2.6039    0.2970    0.0000 H   0  0  0  0  0  0  0  0  0  0  0  0
    1.8597    0.7606    0.0000 H   0  0  0  0  0  0  0  0  0  0  0  0
    1.3961    0.0164    0.0000 H   0  0  0  0  0  0  0  0  0  0  0  0
  1 23  1  0  0  0  0
  1 24  1  0  0  0  0
  2 14  2  0  0  0  0
  3 32  2  0  0  0  0
  4 40  1  0  0  0  0
  4 43  1  0  0  0  0
  5 19  1  0  0  0  0
  5 20  1  0  0  0  0
  5 21  1  0  0  0  0
  6 14  1  0  0  0  0
  6 25  1  0  0  0  0
  6 57  1  0  0  0  0
  7 18  1  0  0  0  0
  7 26  1  0  0  0  0
  7 62  1  0  0  0  0
  8 16  1  0  0  0  0
  8 32  1  0  0  0  0
  8 63  1  0  0  0  0
  9 42  1  0  0  0  0
  9 74  1  0  0  0  0
  9 75  1  0  0  0  0
 10 11  1  0  0  0  0
 10 12  1  0  0  0  0
 10 13  1  0  0  0  0
 10 14  1  0  0  0  0
 11 15  2  0  0  0  0
 11 17  1  0  0  0  0
 12 44  1  0  0  0  0
 12 45  1  0  0  0  0
 12 46  1  0  0  0  0
 13 47  1  0  0  0  0
 13 48  1  0  0  0  0
 13 49  1  0  0  0  0
 15 16  1  0  0  0  0
 15 50  1  0  0  0  0
 16 18  2  0  0  0  0
 17 22  2  0  0  0  0
 17 51  1  0  0  0  0
 18 22  1  0  0  0  0
 19 23  1  0  0  0  0
 19 52  1  0  0  0  0
 19 53  1  0  0  0  0
 20 24  1  0  0  0  0
 20 54  1  0  0  0  0
 20 55  1  0  0  0  0
 21 28  2  0  0  0  0
 21 29  1  0  0  0  0
 22 56  1  0  0  0  0
 23 58  1  0  0  0  0
 23 59  1  0  0  0  0
 24 60  1  0  0  0  0
 24 61  1  0  0  0  0
 25 30  2  0  0  0  0
 25 31  1  0  0  0  0
 26 27  2  0  0  0  0
 26 33  1  0  0  0  0
 27 32  1  0  0  0  0
 27 35  1  0  0  0  0
 28 30  1  0  0  0  0
 28 64  1  0  0  0  0
 29 31  2  0  0  0  0
 29 65  1  0  0  0  0
 30 66  1  0  0  0  0
 31 67  1  0  0  0  0
 33 34  2  0  0  0  0
 33 68  1  0  0  0  0
 34 36  1  0  0  0  0
 34 37  1  0  0  0  0
 35 36  2  0  0  0  0
 35 69  1  0  0  0  0
 36 70  1  0  0  0  0
 37 38  2  0  0  0  0
 37 39  1  0  0  0  0
 38 40  1  0  0  0  0
 38 71  1  0  0  0  0
 39 41  2  0  0  0  0
 39 72  1  0  0  0  0
 40 42  2  0  0  0  0
 41 42  1  0  0  0  0
 41 73  1  0  0  0  0
 43 76  1  0  0  0  0
 43 77  1  0  0  0  0
 43 78  1  0  0  0  0
M  END
> <PUBCHEM_COMPOUND_CID>
44427519

> <PUBCHEM_COMPOUND_CANONICALIZED>
1

> <PUBCHEM_CACTVS_COMPLEXITY>
964

> <PUBCHEM_CACTVS_HBOND_ACCEPTOR>
7

> <PUBCHEM_CACTVS_HBOND_DONOR>
4

> <PUBCHEM_CACTVS_ROTATABLE_BOND>
6

> <PUBCHEM_CACTVS_SUBSKEYS>
AAADcfB/uAAAAAAAAAAAAAAAAAAAAAAAAAA8YMGCBYAAAAABVAAAHgAQAAAADgzhmAYyxoPABACIAiVSUACCCAAlIgAIiAEPfMgOZnrE9ZuXMahk1BHY6ceYyfCfyACBQAACECCQAQKAAAQgQAAAAAAAAA==

> <PUBCHEM_IUPAC_OPENEYE_NAME>
2-[9-(4-amino-3-methoxy-phenyl)-6-oxo-5,11-dihydrobenzo[b][1,4]benzodiazepin-3-yl]-2-methyl-N-(4-morpholinophenyl)propanamide

> <PUBCHEM_IUPAC_CAS_NAME>
2-[9-(4-amino-3-methoxyphenyl)-6-oxo-5,11-dihydrobenzo[b][1,4]benzodiazepin-3-yl]-2-methyl-N-[4-(4-morpholinyl)phenyl]propanamide

> <PUBCHEM_IUPAC_NAME_MARKUP>
2-[9-(4-amino-3-methoxyphenyl)-6-oxo-5,11-dihydrobenzo[b][1,4]benzodiazepin-3-yl]-2-methyl-<I>N</I>-(4-morpholin-4-ylphenyl)propanamide

> <PUBCHEM_IUPAC_NAME>
2-[9-(4-amino-3-methoxyphenyl)-6-oxo-5,11-dihydrobenzo[b][1,4]benzodiazepin-3-yl]-2-methyl-N-(4-morpholin-4-ylphenyl)propanamide

> <PUBCHEM_IUPAC_SYSTEMATIC_NAME>
2-[9-(4-azanyl-3-methoxy-phenyl)-6-oxidanylidene-5,11-dihydrobenzo[b][1,4]benzodiazepin-3-yl]-2-methyl-N-(4-morpholin-4-ylphenyl)propanamide

> <PUBCHEM_IUPAC_TRADITIONAL_NAME>
2-[9-(4-amino-3-methoxy-phenyl)-6-keto-5,11-dihydrobenzo[b][1,4]benzodiazepin-3-yl]-2-methyl-N-(4-morpholinophenyl)propionamide

> <PUBCHEM_IUPAC_INCHI>
InChI=1S/C34H35N5O4/c1-34(2,33(41)36-24-7-9-25(10-8-24)39-14-16-43-17-15-39)23-6-13-28-30(20-23)38-32(40)26-11-4-21(18-29(26)37-28)22-5-12-27(35)31(19-22)42-3/h4-13,18-20,37H,14-17,35H2,1-3H3,(H,36,41)(H,38,40)

> <PUBCHEM_IUPAC_INCHIKEY>
UWHWQUTVFLDMPJ-UHFFFAOYSA-N

> <PUBCHEM_XLOGP3_AA>
4.7

> <PUBCHEM_EXACT_MASS>
577.26890461

> <PUBCHEM_MOLECULAR_FORMULA>
C34H35N5O4

> <PUBCHEM_MOLECULAR_WEIGHT>
577.7

> <PUBCHEM_SMILES>
CC(C)(C1=CC2=C(C=C1)NC3=C(C=CC(=C3)C4=CC(=C(C=C4)N)OC)C(=O)N2)C(=O)NC5=CC=C(C=C5)N6CCOCC6

> <PUBCHEM_OPENEYE_CAN_SMILES>
CC(C)(C1=CC2=C(C=C1)NC3=C(C=CC(=C3)C4=CC(=C(C=C4)N)OC)C(=O)N2)C(=O)NC5=CC=C(C=C5)N6CCOCC6

> <PUBCHEM_OPENEYE_ISO_SMILES>
CC(C)(C1=CC2=C(C=C1)NC3=C(C=CC(=C3)C4=CC(=C(C=C4)N)OC)C(=O)N2)C(=O)NC5=CC=C(C=C5)N6CCOCC6

> <PUBCHEM_CACTVS_TPSA>
118

> <PUBCHEM_MONOISOTOPIC_WEIGHT>
577.26890461

> <PUBCHEM_TOTAL_CHARGE>
0

> <PUBCHEM_HEAVY_ATOM_COUNT>
43

> <PUBCHEM_ATOM_DEF_STEREO_COUNT>
0

> <PUBCHEM_ATOM_UDEF_STEREO_COUNT>
0

> <PUBCHEM_BOND_DEF_STEREO_COUNT>
0

> <PUBCHEM_BOND_UDEF_STEREO_COUNT>
0

> <PUBCHEM_ISOTOPIC_ATOM_COUNT>
0

> <PUBCHEM_COMPONENT_COUNT>
1

> <PUBCHEM_CACTVS_TAUTO_COUNT>
-1

> <PUBCHEM_COORDINATE_TYPE>
1
5
255

> <PUBCHEM_BONDANNOTATIONS>
11  15  8
11  17  8
15  16  8
16  18  8
17  22  8
18  22  8
21  28  8
21  29  8
25  30  8
25  31  8
26  27  8
26  33  8
27  35  8
28  30  8
29  31  8
33  34  8
34  36  8
35  36  8
37  38  8
37  39  8
38  40  8
39  41  8
40  42  8
41  42  8

$$$$
