52940797
  -OEChem-03202500032D

 43 45  0     0  0  0  0  0  0999 V2000
    7.2566    1.9626    0.0000 O   0  0  0  0  0  0  0  0  0  0  0  0
    5.9209    3.4512    0.0000 O   0  0  0  0  0  0  0  0  0  0  0  0
    6.2781   -4.0676    0.0000 O   0  0  0  0  0  0  0  0  0  0  0  0
    4.6783   -1.9604    0.0000 N   0  0  0  0  0  0  0  0  0  0  0  0
    5.2619   -1.1556    0.0000 N   0  0  0  0  0  0  0  0  0  0  0  0
    2.8660   -2.1556    0.0000 N   0  0  0  0  0  0  0  0  0  0  0  0
    2.0000   -0.6556    0.0000 N   0  0  0  0  0  0  0  0  0  0  0  0
    2.8660    0.8444    0.0000 N   0  0  0  0  0  0  0  0  0  0  0  0
    3.7320   -0.6556    0.0000 C   0  0  0  0  0  0  0  0  0  0  0  0
    4.6783   -0.3509    0.0000 C   0  0  0  0  0  0  0  0  0  0  0  0
    3.7320   -1.6556    0.0000 C   0  0  0  0  0  0  0  0  0  0  0  0
    4.9889    0.5996    0.0000 C   0  0  0  0  0  0  0  0  0  0  0  0
    4.9889   -2.9109    0.0000 C   0  0  0  0  0  0  0  0  0  0  0  0
    2.8660   -0.1556    0.0000 C   0  0  0  0  0  0  0  0  0  0  0  0
    5.9674    0.8058    0.0000 C   0  0  0  0  0  0  0  0  0  0  0  0
    4.3211    1.3439    0.0000 C   0  0  0  0  0  0  0  0  0  0  0  0
    5.9674   -3.1171    0.0000 C   0  0  0  0  0  0  0  0  0  0  0  0
    6.2781    1.7564    0.0000 C   0  0  0  0  0  0  0  0  0  0  0  0
    5.6103    2.5007    0.0000 C   0  0  0  0  0  0  0  0  0  0  0  0
    4.6318    2.2944    0.0000 C   0  0  0  0  0  0  0  0  0  0  0  0
    2.0000   -1.6556    0.0000 C   0  0  0  0  0  0  0  0  0  0  0  0
    7.9244    1.2183    0.0000 C   0  0  0  0  0  0  0  0  0  0  0  0
    8.9030    1.4245    0.0000 C   0  0  0  0  0  0  0  0  0  0  0  0
    5.2531    4.1955    0.0000 C   0  0  0  0  0  0  0  0  0  0  0  0
    4.3751   -2.9982    0.0000 H   0  0  0  0  0  0  0  0  0  0  0  0
    4.9684   -3.5306    0.0000 H   0  0  0  0  0  0  0  0  0  0  0  0
    6.3815    0.3444    0.0000 H   0  0  0  0  0  0  0  0  0  0  0  0
    3.7144    1.2161    0.0000 H   0  0  0  0  0  0  0  0  0  0  0  0
    6.5812   -3.0298    0.0000 H   0  0  0  0  0  0  0  0  0  0  0  0
    5.9880   -2.4974    0.0000 H   0  0  0  0  0  0  0  0  0  0  0  0
    4.2177    2.7559    0.0000 H   0  0  0  0  0  0  0  0  0  0  0  0
    1.4631   -1.9656    0.0000 H   0  0  0  0  0  0  0  0  0  0  0  0
    2.3291    1.1544    0.0000 H   0  0  0  0  0  0  0  0  0  0  0  0
    3.4030    1.1544    0.0000 H   0  0  0  0  0  0  0  0  0  0  0  0
    7.3981    0.8906    0.0000 H   0  0  0  0  0  0  0  0  0  0  0  0
    8.1557    0.6430    0.0000 H   0  0  0  0  0  0  0  0  0  0  0  0
    6.8848   -4.1955    0.0000 H   0  0  0  0  0  0  0  0  0  0  0  0
    9.0308    0.8178    0.0000 H   0  0  0  0  0  0  0  0  0  0  0  0
    9.5096    1.5523    0.0000 H   0  0  0  0  0  0  0  0  0  0  0  0
    8.7751    2.0312    0.0000 H   0  0  0  0  0  0  0  0  0  0  0  0
    5.7145    4.6095    0.0000 H   0  0  0  0  0  0  0  0  0  0  0  0
    4.8390    4.6570    0.0000 H   0  0  0  0  0  0  0  0  0  0  0  0
    4.7916    3.7814    0.0000 H   0  0  0  0  0  0  0  0  0  0  0  0
  1 18  1  0  0  0  0
  1 22  1  0  0  0  0
  2 19  1  0  0  0  0
  2 24  1  0  0  0  0
  3 17  1  0  0  0  0
  3 37  1  0  0  0  0
  4  5  1  0  0  0  0
  4 11  1  0  0  0  0
  4 13  1  0  0  0  0
  5 10  2  0  0  0  0
  6 11  2  0  0  0  0
  6 21  1  0  0  0  0
  7 14  1  0  0  0  0
  7 21  2  0  0  0  0
  8 14  1  0  0  0  0
  8 33  1  0  0  0  0
  8 34  1  0  0  0  0
  9 10  1  0  0  0  0
  9 11  1  0  0  0  0
  9 14  2  0  0  0  0
 10 12  1  0  0  0  0
 12 15  2  0  0  0  0
 12 16  1  0  0  0  0
 13 17  1  0  0  0  0
 13 25  1  0  0  0  0
 13 26  1  0  0  0  0
 15 18  1  0  0  0  0
 15 27  1  0  0  0  0
 16 20  2  0  0  0  0
 16 28  1  0  0  0  0
 17 29  1  0  0  0  0
 17 30  1  0  0  0  0
 18 19  2  0  0  0  0
 19 20  1  0  0  0  0
 20 31  1  0  0  0  0
 21 32  1  0  0  0  0
 22 23  1  0  0  0  0
 22 35  1  0  0  0  0
 22 36  1  0  0  0  0
 23 38  1  0  0  0  0
 23 39  1  0  0  0  0
 23 40  1  0  0  0  0
 24 41  1  0  0  0  0
 24 42  1  0  0  0  0
 24 43  1  0  0  0  0
M  END
> <PUBCHEM_COMPOUND_CID>
52940797

> <PUBCHEM_COMPOUND_CANONICALIZED>
1

> <PUBCHEM_CACTVS_COMPLEXITY>
402

> <PUBCHEM_CACTVS_HBOND_ACCEPTOR>
7

> <PUBCHEM_CACTVS_HBOND_DONOR>
2

> <PUBCHEM_CACTVS_ROTATABLE_BOND>
6

> <PUBCHEM_CACTVS_SUBSKEYS>
AAADceB7sAAAAAAAAAAAAAAAAAAAAWAAAAA8QAAAAAAAAFgB/AAAHgAYCAAADAzhnwY3tt5IFgCiAyZjZACSjCsxoKAd2CAuzJiPPqLE+duGvCrsyBPa6Cew0PEOIAABAAAAQABAAAIAAACAAAAAAAAAAA==

> <PUBCHEM_IUPAC_OPENEYE_NAME>
2-[4-amino-3-(3-ethoxy-4-methoxy-phenyl)pyrazolo[3,4-d]pyrimidin-1-yl]ethanol

> <PUBCHEM_IUPAC_CAS_NAME>
2-[4-amino-3-(3-ethoxy-4-methoxyphenyl)-1-pyrazolo[3,4-d]pyrimidinyl]ethanol

> <PUBCHEM_IUPAC_NAME_MARKUP>
2-[4-amino-3-(3-ethoxy-4-methoxyphenyl)pyrazolo[3,4-d]pyrimidin-1-yl]ethanol

> <PUBCHEM_IUPAC_NAME>
2-[4-amino-3-(3-ethoxy-4-methoxyphenyl)pyrazolo[3,4-d]pyrimidin-1-yl]ethanol

> <PUBCHEM_IUPAC_SYSTEMATIC_NAME>
2-[4-azanyl-3-(3-ethoxy-4-methoxy-phenyl)pyrazolo[3,4-d]pyrimidin-1-yl]ethanol

> <PUBCHEM_IUPAC_TRADITIONAL_NAME>
2-[4-amino-3-(3-ethoxy-4-methoxy-phenyl)pyrazolo[3,4-d]pyrimidin-1-yl]ethanol

> <PUBCHEM_IUPAC_INCHI>
InChI=1S/C16H19N5O3/c1-3-24-12-8-10(4-5-11(12)23-2)14-13-15(17)18-9-19-16(13)21(20-14)6-7-22/h4-5,8-9,22H,3,6-7H2,1-2H3,(H2,17,18,19)

> <PUBCHEM_IUPAC_INCHIKEY>
KIWLNXLVLDAZRB-UHFFFAOYSA-N

> <PUBCHEM_XLOGP3_AA>
1.1

> <PUBCHEM_EXACT_MASS>
329.14878949

> <PUBCHEM_MOLECULAR_FORMULA>
C16H19N5O3

> <PUBCHEM_MOLECULAR_WEIGHT>
329.35

> <PUBCHEM_SMILES>
CCOC1=C(C=CC(=C1)C2=NN(C3=NC=NC(=C23)N)CCO)OC

> <PUBCHEM_OPENEYE_CAN_SMILES>
CCOC1=C(C=CC(=C1)C2=NN(C3=NC=NC(=C23)N)CCO)OC

> <PUBCHEM_OPENEYE_ISO_SMILES>
CCOC1=C(C=CC(=C1)C2=NN(C3=NC=NC(=C23)N)CCO)OC

> <PUBCHEM_CACTVS_TPSA>
108

> <PUBCHEM_MONOISOTOPIC_WEIGHT>
329.14878949

> <PUBCHEM_TOTAL_CHARGE>
0

> <PUBCHEM_HEAVY_ATOM_COUNT>
24

> <PUBCHEM_ATOM_DEF_STEREO_COUNT>
0

> <PUBCHEM_ATOM_UDEF_STEREO_COUNT>
0

> <PUBCHEM_BOND_DEF_STEREO_COUNT>
0

> <PUBCHEM_BOND_UDEF_STEREO_COUNT>
0

> <PUBCHEM_ISOTOPIC_ATOM_COUNT>
0

> <PUBCHEM_COMPONENT_COUNT>
1

> <PUBCHEM_CACTVS_TAUTO_COUNT>
-1

> <PUBCHEM_COORDINATE_TYPE>
1
5
255

> <PUBCHEM_BONDANNOTATIONS>
12  15  8
12  16  8
15  18  8
16  20  8
18  19  8
19  20  8
4  11  8
4  5  8
5  10  8
6  11  8
6  21  8
7  14  8
7  21  8
9  10  8
9  11  8
9  14  8

$$$$
