24905188
  -OEChem-03192523542D

 38 41  0     0  0  0  0  0  0999 V2000
    4.6783   -2.0961    0.0000 N   0  0  0  0  0  0  0  0  0  0  0  0
    5.2619   -1.2914    0.0000 N   0  0  0  0  0  0  0  0  0  0  0  0
    2.8660   -2.2914    0.0000 N   0  0  0  0  0  0  0  0  0  0  0  0
    6.1110    3.2237    0.0000 N   0  0  0  0  0  0  0  0  0  0  0  0
    2.0000   -0.7914    0.0000 N   0  0  0  0  0  0  0  0  0  0  0  0
    2.8660    0.7086    0.0000 N   0  0  0  0  0  0  0  0  0  0  0  0
    4.9889   -3.0466    0.0000 C   0  0  0  0  0  0  0  0  0  0  0  0
    4.6783   -0.4866    0.0000 C   0  0  0  0  0  0  0  0  0  0  0  0
    3.7320   -0.7914    0.0000 C   0  0  0  0  0  0  0  0  0  0  0  0
    3.7320   -1.7914    0.0000 C   0  0  0  0  0  0  0  0  0  0  0  0
    4.9889    0.4639    0.0000 C   0  0  0  0  0  0  0  0  0  0  0  0
    5.9674   -3.2528    0.0000 C   0  0  0  0  0  0  0  0  0  0  0  0
    4.3211   -3.7909    0.0000 C   0  0  0  0  0  0  0  0  0  0  0  0
    6.2781    1.6206    0.0000 C   0  0  0  0  0  0  0  0  0  0  0  0
    5.9674    0.6701    0.0000 C   0  0  0  0  0  0  0  0  0  0  0  0
    2.8660   -0.2914    0.0000 C   0  0  0  0  0  0  0  0  0  0  0  0
    5.6103    2.3649    0.0000 C   0  0  0  0  0  0  0  0  0  0  0  0
    4.3211    1.2082    0.0000 C   0  0  0  0  0  0  0  0  0  0  0  0
    4.6318    2.1587    0.0000 C   0  0  0  0  0  0  0  0  0  0  0  0
    7.1859    2.0257    0.0000 C   0  0  0  0  0  0  0  0  0  0  0  0
    7.0828    3.0145    0.0000 C   0  0  0  0  0  0  0  0  0  0  0  0
    2.0000   -1.7914    0.0000 C   0  0  0  0  0  0  0  0  0  0  0  0
    5.1815   -3.6360    0.0000 H   0  0  0  0  0  0  0  0  0  0  0  0
    5.8396   -3.8595    0.0000 H   0  0  0  0  0  0  0  0  0  0  0  0
    6.5741   -3.3807    0.0000 H   0  0  0  0  0  0  0  0  0  0  0  0
    6.0953   -2.6462    0.0000 H   0  0  0  0  0  0  0  0  0  0  0  0
    3.8596   -3.3769    0.0000 H   0  0  0  0  0  0  0  0  0  0  0  0
    3.9070   -4.2524    0.0000 H   0  0  0  0  0  0  0  0  0  0  0  0
    4.7826   -4.2050    0.0000 H   0  0  0  0  0  0  0  0  0  0  0  0
    6.3815    0.2086    0.0000 H   0  0  0  0  0  0  0  0  0  0  0  0
    3.7144    1.0803    0.0000 H   0  0  0  0  0  0  0  0  0  0  0  0
    4.2177    2.6202    0.0000 H   0  0  0  0  0  0  0  0  0  0  0  0
    7.7228    1.7157    0.0000 H   0  0  0  0  0  0  0  0  0  0  0  0
    5.8608    3.7909    0.0000 H   0  0  0  0  0  0  0  0  0  0  0  0
    7.5443    3.4285    0.0000 H   0  0  0  0  0  0  0  0  0  0  0  0
    1.4631   -2.1014    0.0000 H   0  0  0  0  0  0  0  0  0  0  0  0
    2.3291    1.0186    0.0000 H   0  0  0  0  0  0  0  0  0  0  0  0
    3.4030    1.0186    0.0000 H   0  0  0  0  0  0  0  0  0  0  0  0
  1  2  1  0  0  0  0
  1  7  1  0  0  0  0
  1 10  1  0  0  0  0
  2  8  2  0  0  0  0
  3 10  2  0  0  0  0
  3 22  1  0  0  0  0
  4 17  1  0  0  0  0
  4 21  1  0  0  0  0
  4 34  1  0  0  0  0
  5 16  1  0  0  0  0
  5 22  2  0  0  0  0
  6 16  1  0  0  0  0
  6 37  1  0  0  0  0
  6 38  1  0  0  0  0
  7 12  1  0  0  0  0
  7 13  1  0  0  0  0
  7 23  1  0  0  0  0
  8  9  1  0  0  0  0
  8 11  1  0  0  0  0
  9 10  1  0  0  0  0
  9 16  2  0  0  0  0
 11 15  2  0  0  0  0
 11 18  1  0  0  0  0
 12 24  1  0  0  0  0
 12 25  1  0  0  0  0
 12 26  1  0  0  0  0
 13 27  1  0  0  0  0
 13 28  1  0  0  0  0
 13 29  1  0  0  0  0
 14 15  1  0  0  0  0
 14 17  2  0  0  0  0
 14 20  1  0  0  0  0
 15 30  1  0  0  0  0
 17 19  1  0  0  0  0
 18 19  2  0  0  0  0
 18 31  1  0  0  0  0
 19 32  1  0  0  0  0
 20 21  2  0  0  0  0
 20 33  1  0  0  0  0
 21 35  1  0  0  0  0
 22 36  1  0  0  0  0
M  END
> <PUBCHEM_COMPOUND_CID>
24905188

> <PUBCHEM_COMPOUND_CANONICALIZED>
1

> <PUBCHEM_CACTVS_COMPLEXITY>
402

> <PUBCHEM_CACTVS_HBOND_ACCEPTOR>
4

> <PUBCHEM_CACTVS_HBOND_DONOR>
2

> <PUBCHEM_CACTVS_ROTATABLE_BOND>
2

> <PUBCHEM_CACTVS_SUBSKEYS>
AAADceB7gAAAAAAAAAAAAAAAAAAAAWLAAAA8QAAAAAAAAFgB/gAAHAAYAAAADCjBHwQ/8P7JkACiAzZnZACShCsxgqAd2aA4ZJiIKOLA2dGEpAhomALIyCcQgMAOCAACAAACAAAQAAQAAAQAAAAAAAAAAA==

> <PUBCHEM_IUPAC_OPENEYE_NAME>
3-(1H-indol-5-yl)-1-isopropyl-pyrazolo[3,4-d]pyrimidin-4-amine

> <PUBCHEM_IUPAC_CAS_NAME>
3-(1H-indol-5-yl)-1-propan-2-yl-4-pyrazolo[3,4-d]pyrimidinamine

> <PUBCHEM_IUPAC_NAME_MARKUP>
3-(1<I>H</I>-indol-5-yl)-1-propan-2-ylpyrazolo[3,4-d]pyrimidin-4-amine

> <PUBCHEM_IUPAC_NAME>
3-(1H-indol-5-yl)-1-propan-2-ylpyrazolo[3,4-d]pyrimidin-4-amine

> <PUBCHEM_IUPAC_SYSTEMATIC_NAME>
3-(1H-indol-5-yl)-1-propan-2-yl-pyrazolo[3,4-d]pyrimidin-4-amine

> <PUBCHEM_IUPAC_TRADITIONAL_NAME>
[3-(1H-indol-5-yl)-1-isopropyl-pyrazolo[3,4-d]pyrimidin-4-yl]amine

> <PUBCHEM_IUPAC_INCHI>
InChI=1S/C16H16N6/c1-9(2)22-16-13(15(17)19-8-20-16)14(21-22)11-3-4-12-10(7-11)5-6-18-12/h3-9,18H,1-2H3,(H2,17,19,20)

> <PUBCHEM_IUPAC_INCHIKEY>
PNEGWAQERPTPDN-UHFFFAOYSA-N

> <PUBCHEM_XLOGP3_AA>
2.3

> <PUBCHEM_EXACT_MASS>
292.14364454

> <PUBCHEM_MOLECULAR_FORMULA>
C16H16N6

> <PUBCHEM_MOLECULAR_WEIGHT>
292.34

> <PUBCHEM_SMILES>
CC(C)N1C2=NC=NC(=C2C(=N1)C3=CC4=C(C=C3)NC=C4)N

> <PUBCHEM_OPENEYE_CAN_SMILES>
CC(C)N1C2=NC=NC(=C2C(=N1)C3=CC4=C(C=C3)NC=C4)N

> <PUBCHEM_OPENEYE_ISO_SMILES>
CC(C)N1C2=NC=NC(=C2C(=N1)C3=CC4=C(C=C3)NC=C4)N

> <PUBCHEM_CACTVS_TPSA>
85.4

> <PUBCHEM_MONOISOTOPIC_WEIGHT>
292.14364454

> <PUBCHEM_TOTAL_CHARGE>
0

> <PUBCHEM_HEAVY_ATOM_COUNT>
22

> <PUBCHEM_ATOM_DEF_STEREO_COUNT>
0

> <PUBCHEM_ATOM_UDEF_STEREO_COUNT>
0

> <PUBCHEM_BOND_DEF_STEREO_COUNT>
0

> <PUBCHEM_BOND_UDEF_STEREO_COUNT>
0

> <PUBCHEM_ISOTOPIC_ATOM_COUNT>
0

> <PUBCHEM_COMPONENT_COUNT>
1

> <PUBCHEM_CACTVS_TAUTO_COUNT>
-1

> <PUBCHEM_COORDINATE_TYPE>
1
5
255

> <PUBCHEM_BONDANNOTATIONS>
1  10  8
1  2  8
11  15  8
11  18  8
14  15  8
14  17  8
14  20  8
17  19  8
18  19  8
2  8  8
20  21  8
3  10  8
3  22  8
4  17  8
4  21  8
5  16  8
5  22  8
8  9  8
9  10  8
9  16  8

$$$$
