2818965
  -OEChem-03202501292D

 27 30  0     0  0  0  0  0  0999 V2000
    2.0000   -0.5000    0.0000 S   0  0  0  0  0  0  0  0  0  0  0  0
    4.3958    1.5000    0.0000 O   0  0  0  0  0  0  0  0  0  0  0  0
    8.3795    0.3090    0.0000 O   0  0  0  0  0  0  0  0  0  0  0  0
    5.2619    0.0000    0.0000 N   0  0  0  0  0  0  0  0  0  0  0  0
    6.2081    0.3047    0.0000 N   0  0  0  0  0  0  0  0  0  0  0  0
    4.3958   -1.5000    0.0000 N   0  0  0  0  0  0  0  0  0  0  0  0
    3.5298    0.0000    0.0000 C   0  0  0  0  0  0  0  0  0  0  0  0
    3.5298   -1.0000    0.0000 C   0  0  0  0  0  0  0  0  0  0  0  0
    5.2619   -1.0000    0.0000 C   0  0  0  0  0  0  0  0  0  0  0  0
    2.5836    0.3047    0.0000 C   0  0  0  0  0  0  0  0  0  0  0  0
    4.3958    0.5000    0.0000 C   0  0  0  0  0  0  0  0  0  0  0  0
    2.5836   -1.3047    0.0000 C   0  0  0  0  0  0  0  0  0  0  0  0
    6.7917   -0.5000    0.0000 C   0  0  0  0  0  0  0  0  0  0  0  0
    6.2081   -1.3047    0.0000 C   0  0  0  0  0  0  0  0  0  0  0  0
    7.7917   -0.5000    0.0000 C   0  0  0  0  0  0  0  0  0  0  0  0
    8.3795   -1.3090    0.0000 C   0  0  0  0  0  0  0  0  0  0  0  0
    9.3306   -1.0000    0.0000 C   0  0  0  0  0  0  0  0  0  0  0  0
    9.3306   -0.0000    0.0000 C   0  0  0  0  0  0  0  0  0  0  0  0
    2.8346    0.8716    0.0000 H   0  0  0  0  0  0  0  0  0  0  0  0
    2.0462    0.6140    0.0000 H   0  0  0  0  0  0  0  0  0  0  0  0
    2.0462   -1.6140    0.0000 H   0  0  0  0  0  0  0  0  0  0  0  0
    2.8346   -1.8716    0.0000 H   0  0  0  0  0  0  0  0  0  0  0  0
    6.4007    0.8941    0.0000 H   0  0  0  0  0  0  0  0  0  0  0  0
    6.4007   -1.8940    0.0000 H   0  0  0  0  0  0  0  0  0  0  0  0
    8.1879   -1.8987    0.0000 H   0  0  0  0  0  0  0  0  0  0  0  0
    9.8321   -1.3644    0.0000 H   0  0  0  0  0  0  0  0  0  0  0  0
    9.8321    0.3644    0.0000 H   0  0  0  0  0  0  0  0  0  0  0  0
  1 10  1  0  0  0  0
  1 12  1  0  0  0  0
  2 11  2  0  0  0  0
  3 15  1  0  0  0  0
  3 18  1  0  0  0  0
  4  5  1  0  0  0  0
  4  9  1  0  0  0  0
  4 11  1  0  0  0  0
  5 13  1  0  0  0  0
  5 23  1  0  0  0  0
  6  8  1  0  0  0  0
  6  9  2  0  0  0  0
  7  8  2  0  0  0  0
  7 10  1  0  0  0  0
  7 11  1  0  0  0  0
  8 12  1  0  0  0  0
  9 14  1  0  0  0  0
 10 19  1  0  0  0  0
 10 20  1  0  0  0  0
 12 21  1  0  0  0  0
 12 22  1  0  0  0  0
 13 14  2  0  0  0  0
 13 15  1  0  0  0  0
 14 24  1  0  0  0  0
 15 16  2  0  0  0  0
 16 17  1  0  0  0  0
 16 25  1  0  0  0  0
 17 18  2  0  0  0  0
 17 26  1  0  0  0  0
 18 27  1  0  0  0  0
M  END
> <PUBCHEM_COMPOUND_CID>
2818965

> <PUBCHEM_COMPOUND_CANONICALIZED>
1

> <PUBCHEM_CACTVS_COMPLEXITY>
523

> <PUBCHEM_CACTVS_HBOND_ACCEPTOR>
5

> <PUBCHEM_CACTVS_HBOND_DONOR>
1

> <PUBCHEM_CACTVS_ROTATABLE_BOND>
1

> <PUBCHEM_CACTVS_SUBSKEYS>
AAADccBzMABAAAAAAAAAAAAAAAAAASIEAAAgAAAAAAAAAEABgAAAHgQYAAAADAyl0AKxBIJiBEioAq9y9ACCCAEkIhAbqAGWDNgOJjKkvRuHGSDkxBGoqcaYEQAAAAAAAAAAAAAAAAAAAAAAAAAAAAAAAA==

> <PUBCHEM_IUPAC_OPENEYE_NAME>
11-(2-furyl)-5-thia-1,8,12-triazatricyclo[7.3.0.03,7]dodeca-3(7),8,10-trien-2-one

> <PUBCHEM_IUPAC_CAS_NAME>
11-(2-furanyl)-5-thia-1,8,12-triazatricyclo[7.3.0.03,7]dodeca-3(7),8,10-trien-2-one

> <PUBCHEM_IUPAC_NAME_MARKUP>
11-(furan-2-yl)-5-thia-1,8,12-triazatricyclo[7.3.0.0<SUP>3,7</SUP>]dodeca-3(7),8,10-trien-2-one

> <PUBCHEM_IUPAC_NAME>
11-(furan-2-yl)-5-thia-1,8,12-triazatricyclo[7.3.0.03,7]dodeca-3(7),8,10-trien-2-one

> <PUBCHEM_IUPAC_SYSTEMATIC_NAME>
11-(furan-2-yl)-5-thia-1,8,12-triazatricyclo[7.3.0.03,7]dodeca-3(7),8,10-trien-2-one

> <PUBCHEM_IUPAC_TRADITIONAL_NAME>
11-(2-furyl)-5-thia-1,8,12-triazatricyclo[7.3.0.03,7]dodeca-3(7),8,10-trien-2-one

> <PUBCHEM_IUPAC_INCHI>
InChI=1S/C12H9N3O2S/c16-12-7-5-18-6-9(7)13-11-4-8(14-15(11)12)10-2-1-3-17-10/h1-4,14H,5-6H2

> <PUBCHEM_IUPAC_INCHIKEY>
TWQOYSLSDQJDDJ-UHFFFAOYSA-N

> <PUBCHEM_XLOGP3_AA>
0.4

> <PUBCHEM_EXACT_MASS>
259.04154771

> <PUBCHEM_MOLECULAR_FORMULA>
C12H9N3O2S

> <PUBCHEM_MOLECULAR_WEIGHT>
259.29

> <PUBCHEM_SMILES>
C1C2=C(CS1)N=C3C=C(NN3C2=O)C4=CC=CO4

> <PUBCHEM_OPENEYE_CAN_SMILES>
C1C2=C(CS1)N=C3C=C(NN3C2=O)C4=CC=CO4

> <PUBCHEM_OPENEYE_ISO_SMILES>
C1C2=C(CS1)N=C3C=C(NN3C2=O)C4=CC=CO4

> <PUBCHEM_CACTVS_TPSA>
83.1

> <PUBCHEM_MONOISOTOPIC_WEIGHT>
259.04154771

> <PUBCHEM_TOTAL_CHARGE>
0

> <PUBCHEM_HEAVY_ATOM_COUNT>
18

> <PUBCHEM_ATOM_DEF_STEREO_COUNT>
0

> <PUBCHEM_ATOM_UDEF_STEREO_COUNT>
0

> <PUBCHEM_BOND_DEF_STEREO_COUNT>
0

> <PUBCHEM_BOND_UDEF_STEREO_COUNT>
0

> <PUBCHEM_ISOTOPIC_ATOM_COUNT>
0

> <PUBCHEM_COMPONENT_COUNT>
1

> <PUBCHEM_CACTVS_TAUTO_COUNT>
-1

> <PUBCHEM_COORDINATE_TYPE>
1
5
255

> <PUBCHEM_BONDANNOTATIONS>
13  14  8
15  16  8
16  17  8
17  18  8
3  15  8
3  18  8
4  11  8
4  5  8
4  9  8
5  13  8
6  8  8
6  9  8
7  11  8
7  8  8
9  14  8

$$$$
