49830376
  -OEChem-03202501262D

 47 50  0     0  0  0  0  0  0999 V2000
    2.8660   -2.2673    0.0000 F   0  0  0  0  0  0  0  0  0  0  0  0
    5.4641    0.2327    0.0000 O   0  0  0  0  0  0  0  0  0  0  0  0
    6.3301   -1.2673    0.0000 N   0  0  0  0  0  0  0  0  0  0  0  0
   10.6603   -0.7673    0.0000 N   0  0  0  0  0  0  0  0  0  0  0  0
   12.4202    0.1980    0.0000 N   0  0  0  0  0  0  0  0  0  0  0  0
    4.5981   -1.2673    0.0000 N   0  0  0  0  0  0  0  0  0  0  0  0
   12.4202    2.2673    0.0000 N   0  0  0  0  0  0  0  0  0  0  0  0
    9.7942    0.7327    0.0000 C   0  0  0  0  0  0  0  0  0  0  0  0
    8.9282    0.2327    0.0000 C   0  0  0  0  0  0  0  0  0  0  0  0
   10.6603    0.2327    0.0000 C   0  0  0  0  0  0  0  0  0  0  0  0
   11.5263    0.7327    0.0000 C   0  0  0  0  0  0  0  0  0  0  0  0
    9.7942    1.7327    0.0000 C   0  0  0  0  0  0  0  0  0  0  0  0
   11.5263    1.7327    0.0000 C   0  0  0  0  0  0  0  0  0  0  0  0
    8.0622    0.7327    0.0000 C   0  0  0  0  0  0  0  0  0  0  0  0
    8.9282   -0.7673    0.0000 C   0  0  0  0  0  0  0  0  0  0  0  0
    7.1962   -0.7673    0.0000 C   0  0  0  0  0  0  0  0  0  0  0  0
   10.6603    2.2327    0.0000 C   0  0  0  0  0  0  0  0  0  0  0  0
    7.1962    0.2327    0.0000 C   0  0  0  0  0  0  0  0  0  0  0  0
    8.0622   -1.2673    0.0000 C   0  0  0  0  0  0  0  0  0  0  0  0
    3.7320   -0.7673    0.0000 C   0  0  0  0  0  0  0  0  0  0  0  0
    2.8660    0.7327    0.0000 C   0  0  0  0  0  0  0  0  0  0  0  0
    3.7320    0.2327    0.0000 C   0  0  0  0  0  0  0  0  0  0  0  0
    5.4641   -0.7673    0.0000 C   0  0  0  0  0  0  0  0  0  0  0  0
    2.8660   -1.2673    0.0000 C   0  0  0  0  0  0  0  0  0  0  0  0
    2.0000    0.2327    0.0000 C   0  0  0  0  0  0  0  0  0  0  0  0
   13.3263    0.7119    0.0000 C   0  0  0  0  0  0  0  0  0  0  0  0
    2.0000   -0.7673    0.0000 C   0  0  0  0  0  0  0  0  0  0  0  0
   13.3263    1.7535    0.0000 C   0  0  0  0  0  0  0  0  0  0  0  0
    2.8660    1.7327    0.0000 C   0  0  0  0  0  0  0  0  0  0  0  0
    9.2573    2.0427    0.0000 H   0  0  0  0  0  0  0  0  0  0  0  0
    8.0622    1.3527    0.0000 H   0  0  0  0  0  0  0  0  0  0  0  0
    9.4651   -1.0773    0.0000 H   0  0  0  0  0  0  0  0  0  0  0  0
   10.6603    2.8527    0.0000 H   0  0  0  0  0  0  0  0  0  0  0  0
    6.6592    0.5427    0.0000 H   0  0  0  0  0  0  0  0  0  0  0  0
    8.0622   -1.8873    0.0000 H   0  0  0  0  0  0  0  0  0  0  0  0
    6.3301   -1.8873    0.0000 H   0  0  0  0  0  0  0  0  0  0  0  0
   11.1972   -1.0773    0.0000 H   0  0  0  0  0  0  0  0  0  0  0  0
   10.1233   -1.0773    0.0000 H   0  0  0  0  0  0  0  0  0  0  0  0
    4.2690    0.5427    0.0000 H   0  0  0  0  0  0  0  0  0  0  0  0
    4.5981   -1.8873    0.0000 H   0  0  0  0  0  0  0  0  0  0  0  0
    1.4631    0.5427    0.0000 H   0  0  0  0  0  0  0  0  0  0  0  0
   13.8620    0.3998    0.0000 H   0  0  0  0  0  0  0  0  0  0  0  0
    1.4631   -1.0773    0.0000 H   0  0  0  0  0  0  0  0  0  0  0  0
   13.8620    2.0656    0.0000 H   0  0  0  0  0  0  0  0  0  0  0  0
    3.4860    1.7327    0.0000 H   0  0  0  0  0  0  0  0  0  0  0  0
    2.8660    2.3527    0.0000 H   0  0  0  0  0  0  0  0  0  0  0  0
    2.2460    1.7327    0.0000 H   0  0  0  0  0  0  0  0  0  0  0  0
  1 24  1  0  0  0  0
  2 23  2  0  0  0  0
  3 16  1  0  0  0  0
  3 23  1  0  0  0  0
  3 36  1  0  0  0  0
  4 10  1  0  0  0  0
  4 37  1  0  0  0  0
  4 38  1  0  0  0  0
  5 11  2  0  0  0  0
  5 26  1  0  0  0  0
  6 20  1  0  0  0  0
  6 23  1  0  0  0  0
  6 40  1  0  0  0  0
  7 13  2  0  0  0  0
  7 28  1  0  0  0  0
  8  9  1  0  0  0  0
  8 10  2  0  0  0  0
  8 12  1  0  0  0  0
  9 14  2  0  0  0  0
  9 15  1  0  0  0  0
 10 11  1  0  0  0  0
 11 13  1  0  0  0  0
 12 17  2  0  0  0  0
 12 30  1  0  0  0  0
 13 17  1  0  0  0  0
 14 18  1  0  0  0  0
 14 31  1  0  0  0  0
 15 19  2  0  0  0  0
 15 32  1  0  0  0  0
 16 18  2  0  0  0  0
 16 19  1  0  0  0  0
 17 33  1  0  0  0  0
 18 34  1  0  0  0  0
 19 35  1  0  0  0  0
 20 22  1  0  0  0  0
 20 24  2  0  0  0  0
 21 22  2  0  0  0  0
 21 25  1  0  0  0  0
 21 29  1  0  0  0  0
 22 39  1  0  0  0  0
 24 27  1  0  0  0  0
 25 27  2  0  0  0  0
 25 41  1  0  0  0  0
 26 28  2  0  0  0  0
 26 42  1  0  0  0  0
 27 43  1  0  0  0  0
 28 44  1  0  0  0  0
 29 45  1  0  0  0  0
 29 46  1  0  0  0  0
 29 47  1  0  0  0  0
M  END
> <PUBCHEM_COMPOUND_CID>
49830376

> <PUBCHEM_COMPOUND_CANONICALIZED>
1

> <PUBCHEM_CACTVS_COMPLEXITY>
555

> <PUBCHEM_CACTVS_HBOND_ACCEPTOR>
5

> <PUBCHEM_CACTVS_HBOND_DONOR>
3

> <PUBCHEM_CACTVS_ROTATABLE_BOND>
3

> <PUBCHEM_CACTVS_SUBSKEYS>
AAADceB7oQAAAAAAAAAAAAAAAAAAAAAAAAA8YMEAAAAAAACx9AAAHwAQAAAADAjBHgw/wLLIEACoAzRnVACCgCQxEiAI2CA4dJiIYOLA0dGUJAholALIyCcQgMAOiAAAQAQCACAQAACACAQAQAAAAAAAAA==

> <PUBCHEM_IUPAC_OPENEYE_NAME>
1-[4-(5-aminoquinoxalin-6-yl)phenyl]-3-(2-fluoro-5-methyl-phenyl)urea

> <PUBCHEM_IUPAC_CAS_NAME>
1-[4-(5-amino-6-quinoxalinyl)phenyl]-3-(2-fluoro-5-methylphenyl)urea

> <PUBCHEM_IUPAC_NAME_MARKUP>
1-[4-(5-aminoquinoxalin-6-yl)phenyl]-3-(2-fluoro-5-methylphenyl)urea

> <PUBCHEM_IUPAC_NAME>
1-[4-(5-aminoquinoxalin-6-yl)phenyl]-3-(2-fluoro-5-methylphenyl)urea

> <PUBCHEM_IUPAC_SYSTEMATIC_NAME>
1-[4-(5-azanylquinoxalin-6-yl)phenyl]-3-(2-fluoranyl-5-methyl-phenyl)urea

> <PUBCHEM_IUPAC_TRADITIONAL_NAME>
1-[4-(5-aminoquinoxalin-6-yl)phenyl]-3-(2-fluoro-5-methyl-phenyl)urea

> <PUBCHEM_IUPAC_INCHI>
InChI=1S/C22H18FN5O/c1-13-2-8-17(23)19(12-13)28-22(29)27-15-5-3-14(4-6-15)16-7-9-18-21(20(16)24)26-11-10-25-18/h2-12H,24H2,1H3,(H2,27,28,29)

> <PUBCHEM_IUPAC_INCHIKEY>
OQNPAZRZCXFOBC-UHFFFAOYSA-N

> <PUBCHEM_XLOGP3_AA>
3.2

> <PUBCHEM_EXACT_MASS>
387.14953838

> <PUBCHEM_MOLECULAR_FORMULA>
C22H18FN5O

> <PUBCHEM_MOLECULAR_WEIGHT>
387.4

> <PUBCHEM_SMILES>
CC1=CC(=C(C=C1)F)NC(=O)NC2=CC=C(C=C2)C3=C(C4=NC=CN=C4C=C3)N

> <PUBCHEM_OPENEYE_CAN_SMILES>
CC1=CC(=C(C=C1)F)NC(=O)NC2=CC=C(C=C2)C3=C(C4=NC=CN=C4C=C3)N

> <PUBCHEM_OPENEYE_ISO_SMILES>
CC1=CC(=C(C=C1)F)NC(=O)NC2=CC=C(C=C2)C3=C(C4=NC=CN=C4C=C3)N

> <PUBCHEM_CACTVS_TPSA>
92.9

> <PUBCHEM_MONOISOTOPIC_WEIGHT>
387.14953838

> <PUBCHEM_TOTAL_CHARGE>
0

> <PUBCHEM_HEAVY_ATOM_COUNT>
29

> <PUBCHEM_ATOM_DEF_STEREO_COUNT>
0

> <PUBCHEM_ATOM_UDEF_STEREO_COUNT>
0

> <PUBCHEM_BOND_DEF_STEREO_COUNT>
0

> <PUBCHEM_BOND_UDEF_STEREO_COUNT>
0

> <PUBCHEM_ISOTOPIC_ATOM_COUNT>
0

> <PUBCHEM_COMPONENT_COUNT>
1

> <PUBCHEM_CACTVS_TAUTO_COUNT>
-1

> <PUBCHEM_COORDINATE_TYPE>
1
5
255

> <PUBCHEM_BONDANNOTATIONS>
10  11  8
11  13  8
12  17  8
13  17  8
14  18  8
15  19  8
16  18  8
16  19  8
20  22  8
20  24  8
21  22  8
21  25  8
24  27  8
25  27  8
26  28  8
5  11  8
5  26  8
7  13  8
7  28  8
8  10  8
8  12  8
9  14  8
9  15  8

$$$$
