49830362
  -OEChem-03202501422D

 59 63  0     0  0  0  0  0  0999 V2000
    4.9000   -2.5034    0.0000 S   0  0  0  0  0  0  0  0  0  0  0  0
   11.3459    4.8898    0.0000 O   0  0  0  0  0  0  0  0  0  0  0  0
    7.7890    2.3701    0.0000 O   0  0  0  0  0  0  0  0  0  0  0  0
    2.2218   -1.1986    0.0000 N   0  0  0  0  0  0  0  0  0  0  0  0
    2.5878   -5.2375    0.0000 N   0  0  0  0  0  0  0  0  0  0  0  0
    3.0878    0.3013    0.0000 N   0  0  0  0  0  0  0  0  0  0  0  0
    3.5878   -5.2375    0.0000 N   0  0  0  0  0  0  0  0  0  0  0  0
    6.1427    2.9082    0.0000 N   0  0  0  0  0  0  0  0  0  0  0  0
    7.4318    4.0649    0.0000 N   0  0  0  0  0  0  0  0  0  0  0  0
    3.9538   -1.1986    0.0000 C   0  0  0  0  0  0  0  0  0  0  0  0
    3.9538   -2.1987    0.0000 C   0  0  0  0  0  0  0  0  0  0  0  0
    4.9000   -0.8939    0.0000 C   0  0  0  0  0  0  0  0  0  0  0  0
    3.0878   -2.6987    0.0000 C   0  0  0  0  0  0  0  0  0  0  0  0
    5.2107    0.0566    0.0000 C   0  0  0  0  0  0  0  0  0  0  0  0
    3.0878   -0.6987    0.0000 C   0  0  0  0  0  0  0  0  0  0  0  0
    5.4836   -1.6986    0.0000 C   0  0  0  0  0  0  0  0  0  0  0  0
    3.0878   -3.6986    0.0000 C   0  0  0  0  0  0  0  0  0  0  0  0
    2.2218   -2.1987    0.0000 C   0  0  0  0  0  0  0  0  0  0  0  0
    4.5428    0.8009    0.0000 C   0  0  0  0  0  0  0  0  0  0  0  0
    6.1892    0.2628    0.0000 C   0  0  0  0  0  0  0  0  0  0  0  0
    2.2788   -4.2864    0.0000 C   0  0  0  0  0  0  0  0  0  0  0  0
    5.8320    1.9576    0.0000 C   0  0  0  0  0  0  0  0  0  0  0  0
    3.8968   -4.2864    0.0000 C   0  0  0  0  0  0  0  0  0  0  0  0
    4.8535    1.7514    0.0000 C   0  0  0  0  0  0  0  0  0  0  0  0
    6.4999    1.2133    0.0000 C   0  0  0  0  0  0  0  0  0  0  0  0
    2.0000   -6.0465    0.0000 C   0  0  0  0  0  0  0  0  0  0  0  0
    7.1212    3.1144    0.0000 C   0  0  0  0  0  0  0  0  0  0  0  0
    8.4104    4.2711    0.0000 C   0  0  0  0  0  0  0  0  0  0  0  0
    9.0782    3.5268    0.0000 C   0  0  0  0  0  0  0  0  0  0  0  0
    8.7210    5.2216    0.0000 C   0  0  0  0  0  0  0  0  0  0  0  0
   10.3674    4.6836    0.0000 C   0  0  0  0  0  0  0  0  0  0  0  0
   10.0567    3.7330    0.0000 C   0  0  0  0  0  0  0  0  0  0  0  0
    9.6995    5.4279    0.0000 C   0  0  0  0  0  0  0  0  0  0  0  0
   11.6565    5.8403    0.0000 C   0  0  0  0  0  0  0  0  0  0  0  0
   12.6350    6.0465    0.0000 C   0  0  0  0  0  0  0  0  0  0  0  0
    6.1036   -1.6986    0.0000 H   0  0  0  0  0  0  0  0  0  0  0  0
    1.6848   -2.5086    0.0000 H   0  0  0  0  0  0  0  0  0  0  0  0
    3.9362    0.6730    0.0000 H   0  0  0  0  0  0  0  0  0  0  0  0
    6.6033   -0.1986    0.0000 H   0  0  0  0  0  0  0  0  0  0  0  0
    1.6891   -4.0948    0.0000 H   0  0  0  0  0  0  0  0  0  0  0  0
    4.4865   -4.0948    0.0000 H   0  0  0  0  0  0  0  0  0  0  0  0
    4.4394    2.2129    0.0000 H   0  0  0  0  0  0  0  0  0  0  0  0
    7.1065    1.3412    0.0000 H   0  0  0  0  0  0  0  0  0  0  0  0
    2.5508    0.6113    0.0000 H   0  0  0  0  0  0  0  0  0  0  0  0
    3.6247    0.6113    0.0000 H   0  0  0  0  0  0  0  0  0  0  0  0
    5.7286    3.3696    0.0000 H   0  0  0  0  0  0  0  0  0  0  0  0
    1.4984   -5.6821    0.0000 H   0  0  0  0  0  0  0  0  0  0  0  0
    1.6356   -6.5481    0.0000 H   0  0  0  0  0  0  0  0  0  0  0  0
    2.5016   -6.4109    0.0000 H   0  0  0  0  0  0  0  0  0  0  0  0
    7.0178    4.5264    0.0000 H   0  0  0  0  0  0  0  0  0  0  0  0
    8.8856    2.9375    0.0000 H   0  0  0  0  0  0  0  0  0  0  0  0
    8.3070    5.6831    0.0000 H   0  0  0  0  0  0  0  0  0  0  0  0
   10.4708    3.2716    0.0000 H   0  0  0  0  0  0  0  0  0  0  0  0
    9.8921    6.0172    0.0000 H   0  0  0  0  0  0  0  0  0  0  0  0
   11.6360    6.4600    0.0000 H   0  0  0  0  0  0  0  0  0  0  0  0
   11.0427    5.9276    0.0000 H   0  0  0  0  0  0  0  0  0  0  0  0
   12.7629    5.4398    0.0000 H   0  0  0  0  0  0  0  0  0  0  0  0
   13.2417    6.1744    0.0000 H   0  0  0  0  0  0  0  0  0  0  0  0
   12.5072    6.6532    0.0000 H   0  0  0  0  0  0  0  0  0  0  0  0
  1 11  1  0  0  0  0
  1 16  1  0  0  0  0
  2 31  1  0  0  0  0
  2 34  1  0  0  0  0
  3 27  2  0  0  0  0
  4 15  2  0  0  0  0
  4 18  1  0  0  0  0
  5  7  1  0  0  0  0
  5 21  1  0  0  0  0
  5 26  1  0  0  0  0
  6 15  1  0  0  0  0
  6 44  1  0  0  0  0
  6 45  1  0  0  0  0
  7 23  2  0  0  0  0
  8 22  1  0  0  0  0
  8 27  1  0  0  0  0
  8 46  1  0  0  0  0
  9 27  1  0  0  0  0
  9 28  1  0  0  0  0
  9 50  1  0  0  0  0
 10 11  2  0  0  0  0
 10 12  1  0  0  0  0
 10 15  1  0  0  0  0
 11 13  1  0  0  0  0
 12 14  1  0  0  0  0
 12 16  2  0  0  0  0
 13 17  1  0  0  0  0
 13 18  2  0  0  0  0
 14 19  2  0  0  0  0
 14 20  1  0  0  0  0
 16 36  1  0  0  0  0
 17 21  2  0  0  0  0
 17 23  1  0  0  0  0
 18 37  1  0  0  0  0
 19 24  1  0  0  0  0
 19 38  1  0  0  0  0
 20 25  2  0  0  0  0
 20 39  1  0  0  0  0
 21 40  1  0  0  0  0
 22 24  2  0  0  0  0
 22 25  1  0  0  0  0
 23 41  1  0  0  0  0
 24 42  1  0  0  0  0
 25 43  1  0  0  0  0
 26 47  1  0  0  0  0
 26 48  1  0  0  0  0
 26 49  1  0  0  0  0
 28 29  2  0  0  0  0
 28 30  1  0  0  0  0
 29 32  1  0  0  0  0
 29 51  1  0  0  0  0
 30 33  2  0  0  0  0
 30 52  1  0  0  0  0
 31 32  2  0  0  0  0
 31 33  1  0  0  0  0
 32 53  1  0  0  0  0
 33 54  1  0  0  0  0
 34 35  1  0  0  0  0
 34 55  1  0  0  0  0
 34 56  1  0  0  0  0
 35 57  1  0  0  0  0
 35 58  1  0  0  0  0
 35 59  1  0  0  0  0
M  END
> <PUBCHEM_COMPOUND_CID>
49830362

> <PUBCHEM_COMPOUND_CANONICALIZED>
1

> <PUBCHEM_CACTVS_COMPLEXITY>
699

> <PUBCHEM_CACTVS_HBOND_ACCEPTOR>
6

> <PUBCHEM_CACTVS_HBOND_DONOR>
3

> <PUBCHEM_CACTVS_ROTATABLE_BOND>
6

> <PUBCHEM_CACTVS_SUBSKEYS>
AAADceB7sABAAAAAAAAAAAAAAAAAAWJAAAA8YIAAAAAAAFgB/gAAHgQYAAAADAzl2ga/99LIFAiuAjZndACTjKkxqjAY2DAubJiMJuLk8duGvCzs3BPo6CewwMAOiEAAAAAAAAAQgAAAAAAAAAAAAAAAAA==

> <PUBCHEM_IUPAC_OPENEYE_NAME>
1-[4-[4-amino-7-(1-methylpyrazol-4-yl)thieno[3,2-c]pyridin-3-yl]phenyl]-3-(4-ethoxyphenyl)urea

> <PUBCHEM_IUPAC_CAS_NAME>
1-[4-[4-amino-7-(1-methyl-4-pyrazolyl)-3-thieno[3,2-c]pyridinyl]phenyl]-3-(4-ethoxyphenyl)urea

> <PUBCHEM_IUPAC_NAME_MARKUP>
1-[4-[4-amino-7-(1-methylpyrazol-4-yl)thieno[3,2-c]pyridin-3-yl]phenyl]-3-(4-ethoxyphenyl)urea

> <PUBCHEM_IUPAC_NAME>
1-[4-[4-amino-7-(1-methylpyrazol-4-yl)thieno[3,2-c]pyridin-3-yl]phenyl]-3-(4-ethoxyphenyl)urea

> <PUBCHEM_IUPAC_SYSTEMATIC_NAME>
1-[4-[4-azanyl-7-(1-methylpyrazol-4-yl)thieno[3,2-c]pyridin-3-yl]phenyl]-3-(4-ethoxyphenyl)urea

> <PUBCHEM_IUPAC_TRADITIONAL_NAME>
1-[4-[4-amino-7-(1-methylpyrazol-4-yl)thieno[3,2-c]pyridin-3-yl]phenyl]-3-p-phenetyl-urea

> <PUBCHEM_IUPAC_INCHI>
InChI=1S/C26H24N6O2S/c1-3-34-20-10-8-19(9-11-20)31-26(33)30-18-6-4-16(5-7-18)22-15-35-24-21(13-28-25(27)23(22)24)17-12-29-32(2)14-17/h4-15H,3H2,1-2H3,(H2,27,28)(H2,30,31,33)

> <PUBCHEM_IUPAC_INCHIKEY>
MHCPAORAYMTGCZ-UHFFFAOYSA-N

> <PUBCHEM_XLOGP3_AA>
4

> <PUBCHEM_EXACT_MASS>
484.16814520

> <PUBCHEM_MOLECULAR_FORMULA>
C26H24N6O2S

> <PUBCHEM_MOLECULAR_WEIGHT>
484.6

> <PUBCHEM_SMILES>
CCOC1=CC=C(C=C1)NC(=O)NC2=CC=C(C=C2)C3=CSC4=C3C(=NC=C4C5=CN(N=C5)C)N

> <PUBCHEM_OPENEYE_CAN_SMILES>
CCOC1=CC=C(C=C1)NC(=O)NC2=CC=C(C=C2)C3=CSC4=C3C(=NC=C4C5=CN(N=C5)C)N

> <PUBCHEM_OPENEYE_ISO_SMILES>
CCOC1=CC=C(C=C1)NC(=O)NC2=CC=C(C=C2)C3=CSC4=C3C(=NC=C4C5=CN(N=C5)C)N

> <PUBCHEM_CACTVS_TPSA>
135

> <PUBCHEM_MONOISOTOPIC_WEIGHT>
484.16814520

> <PUBCHEM_TOTAL_CHARGE>
0

> <PUBCHEM_HEAVY_ATOM_COUNT>
35

> <PUBCHEM_ATOM_DEF_STEREO_COUNT>
0

> <PUBCHEM_ATOM_UDEF_STEREO_COUNT>
0

> <PUBCHEM_BOND_DEF_STEREO_COUNT>
0

> <PUBCHEM_BOND_UDEF_STEREO_COUNT>
0

> <PUBCHEM_ISOTOPIC_ATOM_COUNT>
0

> <PUBCHEM_COMPONENT_COUNT>
1

> <PUBCHEM_CACTVS_TAUTO_COUNT>
-1

> <PUBCHEM_COORDINATE_TYPE>
1
5
255

> <PUBCHEM_BONDANNOTATIONS>
1  11  8
1  16  8
10  11  8
10  12  8
10  15  8
11  13  8
12  16  8
13  18  8
14  19  8
14  20  8
17  21  8
17  23  8
19  24  8
20  25  8
22  24  8
22  25  8
28  29  8
28  30  8
29  32  8
30  33  8
31  32  8
31  33  8
4  15  8
4  18  8
5  21  8
5  7  8
7  23  8

$$$$
