53348216
  -OEChem-03202504322D

 56 60  0     0  0  0  0  0  0999 V2000
    6.0010    3.7081    0.0000 S   0  0  0  0  0  0  0  0  0  0  0  0
    7.7494   -2.3265    0.0000 N   0  0  0  0  0  0  0  0  0  0  0  0
    4.2690   -1.2919    0.0000 N   0  0  0  0  0  0  0  0  0  0  0  0
    2.5369   -2.2919    0.0000 N   0  0  0  0  0  0  0  0  0  0  0  0
    6.0010   -1.2919    0.0000 N   0  0  0  0  0  0  0  0  0  0  0  0
    8.6671   -0.8127    0.0000 N   0  0  0  0  0  0  0  0  0  0  0  0
    5.1350    0.2081    0.0000 N   0  0  0  0  0  0  0  0  0  0  0  0
    7.7610    0.7428    0.0000 N   0  0  0  0  0  0  0  0  0  0  0  0
    6.0010    1.7081    0.0000 N   0  0  0  0  0  0  0  0  0  0  0  0
    8.5981   -3.8364    0.0000 C   0  0  0  0  0  0  0  0  0  0  0  0
    8.0881   -4.6966    0.0000 C   0  0  0  0  0  0  0  0  0  0  0  0
    9.0880   -4.7081    0.0000 C   0  0  0  0  0  0  0  0  0  0  0  0
    8.6096   -2.8364    0.0000 C   0  0  0  0  0  0  0  0  0  0  0  0
    7.7610   -1.3265    0.0000 C   0  0  0  0  0  0  0  0  0  0  0  0
    6.8671   -0.7919    0.0000 C   0  0  0  0  0  0  0  0  0  0  0  0
    3.4030   -0.7919    0.0000 C   0  0  0  0  0  0  0  0  0  0  0  0
    4.2690   -2.2919    0.0000 C   0  0  0  0  0  0  0  0  0  0  0  0
    2.5369   -1.2919    0.0000 C   0  0  0  0  0  0  0  0  0  0  0  0
    3.4030   -2.7919    0.0000 C   0  0  0  0  0  0  0  0  0  0  0  0
    5.1350   -0.7919    0.0000 C   0  0  0  0  0  0  0  0  0  0  0  0
    6.8671    0.2081    0.0000 C   0  0  0  0  0  0  0  0  0  0  0  0
    6.0010    0.7081    0.0000 C   0  0  0  0  0  0  0  0  0  0  0  0
    8.6671    0.2289    0.0000 C   0  0  0  0  0  0  0  0  0  0  0  0
    5.1350    2.2081    0.0000 C   0  0  0  0  0  0  0  0  0  0  0  0
    5.1350    3.2081    0.0000 C   0  0  0  0  0  0  0  0  0  0  0  0
    4.2690    1.7081    0.0000 C   0  0  0  0  0  0  0  0  0  0  0  0
    4.2690    3.7081    0.0000 C   0  0  0  0  0  0  0  0  0  0  0  0
    3.4030    2.2081    0.0000 C   0  0  0  0  0  0  0  0  0  0  0  0
    3.4030    3.2081    0.0000 C   0  0  0  0  0  0  0  0  0  0  0  0
    6.0010    4.7081    0.0000 C   0  0  0  0  0  0  0  0  0  0  0  0
    8.0011   -3.6690    0.0000 H   0  0  0  0  0  0  0  0  0  0  0  0
    7.5080   -4.4778    0.0000 H   0  0  0  0  0  0  0  0  0  0  0  0
    7.9734   -5.3059    0.0000 H   0  0  0  0  0  0  0  0  0  0  0  0
    9.1886   -5.3199    0.0000 H   0  0  0  0  0  0  0  0  0  0  0  0
    9.6730   -4.5028    0.0000 H   0  0  0  0  0  0  0  0  0  0  0  0
    9.2189   -2.9512    0.0000 H   0  0  0  0  0  0  0  0  0  0  0  0
    8.8284   -2.2563    0.0000 H   0  0  0  0  0  0  0  0  0  0  0  0
    7.2090   -2.6302    0.0000 H   0  0  0  0  0  0  0  0  0  0  0  0
    3.8015   -0.3169    0.0000 H   0  0  0  0  0  0  0  0  0  0  0  0
    3.0044   -0.3169    0.0000 H   0  0  0  0  0  0  0  0  0  0  0  0
    4.4810   -2.8745    0.0000 H   0  0  0  0  0  0  0  0  0  0  0  0
    4.8796   -2.1842    0.0000 H   0  0  0  0  0  0  0  0  0  0  0  0
    2.3249   -0.7093    0.0000 H   0  0  0  0  0  0  0  0  0  0  0  0
    1.9264   -1.3995    0.0000 H   0  0  0  0  0  0  0  0  0  0  0  0
    3.0044   -3.2668    0.0000 H   0  0  0  0  0  0  0  0  0  0  0  0
    3.8015   -3.2668    0.0000 H   0  0  0  0  0  0  0  0  0  0  0  0
    2.0000   -2.6019    0.0000 H   0  0  0  0  0  0  0  0  0  0  0  0
    9.2028    0.5410    0.0000 H   0  0  0  0  0  0  0  0  0  0  0  0
    6.5380    2.0181    0.0000 H   0  0  0  0  0  0  0  0  0  0  0  0
    4.2690    1.0881    0.0000 H   0  0  0  0  0  0  0  0  0  0  0  0
    4.2690    4.3281    0.0000 H   0  0  0  0  0  0  0  0  0  0  0  0
    2.8660    1.8981    0.0000 H   0  0  0  0  0  0  0  0  0  0  0  0
    2.8660    3.5181    0.0000 H   0  0  0  0  0  0  0  0  0  0  0  0
    6.6210    4.7081    0.0000 H   0  0  0  0  0  0  0  0  0  0  0  0
    6.0010    5.3281    0.0000 H   0  0  0  0  0  0  0  0  0  0  0  0
    5.3810    4.7081    0.0000 H   0  0  0  0  0  0  0  0  0  0  0  0
  1 25  1  0  0  0  0
  1 30  1  0  0  0  0
  2 13  1  0  0  0  0
  2 14  1  0  0  0  0
  2 38  1  0  0  0  0
  3 16  1  0  0  0  0
  3 17  1  0  0  0  0
  3 20  1  0  0  0  0
  4 18  1  0  0  0  0
  4 19  1  0  0  0  0
  4 47  1  0  0  0  0
  5 15  1  0  0  0  0
  5 20  2  0  0  0  0
  6 14  2  0  0  0  0
  6 23  1  0  0  0  0
  7 20  1  0  0  0  0
  7 22  2  0  0  0  0
  8 21  1  0  0  0  0
  8 23  2  0  0  0  0
  9 22  1  0  0  0  0
  9 24  1  0  0  0  0
  9 49  1  0  0  0  0
 10 11  1  0  0  0  0
 10 12  1  0  0  0  0
 10 13  1  0  0  0  0
 10 31  1  0  0  0  0
 11 12  1  0  0  0  0
 11 32  1  0  0  0  0
 11 33  1  0  0  0  0
 12 34  1  0  0  0  0
 12 35  1  0  0  0  0
 13 36  1  0  0  0  0
 13 37  1  0  0  0  0
 14 15  1  0  0  0  0
 15 21  2  0  0  0  0
 16 18  1  0  0  0  0
 16 39  1  0  0  0  0
 16 40  1  0  0  0  0
 17 19  1  0  0  0  0
 17 41  1  0  0  0  0
 17 42  1  0  0  0  0
 18 43  1  0  0  0  0
 18 44  1  0  0  0  0
 19 45  1  0  0  0  0
 19 46  1  0  0  0  0
 21 22  1  0  0  0  0
 23 48  1  0  0  0  0
 24 25  1  0  0  0  0
 24 26  2  0  0  0  0
 25 27  2  0  0  0  0
 26 28  1  0  0  0  0
 26 50  1  0  0  0  0
 27 29  1  0  0  0  0
 27 51  1  0  0  0  0
 28 29  2  0  0  0  0
 28 52  1  0  0  0  0
 29 53  1  0  0  0  0
 30 54  1  0  0  0  0
 30 55  1  0  0  0  0
 30 56  1  0  0  0  0
M  END
> <PUBCHEM_COMPOUND_CID>
53348216

> <PUBCHEM_COMPOUND_CANONICALIZED>
1

> <PUBCHEM_CACTVS_COMPLEXITY>
543

> <PUBCHEM_CACTVS_HBOND_ACCEPTOR>
9

> <PUBCHEM_CACTVS_HBOND_DONOR>
3

> <PUBCHEM_CACTVS_ROTATABLE_BOND>
7

> <PUBCHEM_CACTVS_SUBSKEYS>
AAADceB7wABAAAAAAAAAAAAAGAAAAAAAAAA8WLEAAAAAAACx/AAAHAQQAAAADQjBVgS38bfIEAigASZjZACCgC0xGrAJ2LwodJiIaGLg2dGUJAhokALIyCcQAAAAAAAAAAAAAQAAAAAAAAACAAAAAAAAAA==

> <PUBCHEM_IUPAC_OPENEYE_NAME>
N8-(cyclopropylmethyl)-N4-(2-methylsulfanylphenyl)-2-piperazin-1-yl-pyrimido[5,4-d]pyrimidine-4,8-diamine

> <PUBCHEM_IUPAC_CAS_NAME>
N8-(cyclopropylmethyl)-N4-[2-(methylthio)phenyl]-2-(1-piperazinyl)pyrimido[5,4-d]pyrimidine-4,8-diamine

> <PUBCHEM_IUPAC_NAME_MARKUP>
8-<I>N</I>-(cyclopropylmethyl)-4-<I>N</I>-(2-methylsulfanylphenyl)-2-piperazin-1-ylpyrimido[5,4-d]pyrimidine-4,8-diamine

> <PUBCHEM_IUPAC_NAME>
8-N-(cyclopropylmethyl)-4-N-(2-methylsulfanylphenyl)-2-piperazin-1-ylpyrimido[5,4-d]pyrimidine-4,8-diamine

> <PUBCHEM_IUPAC_SYSTEMATIC_NAME>
N8-(cyclopropylmethyl)-N4-(2-methylsulfanylphenyl)-2-piperazin-1-yl-pyrimido[5,4-d]pyrimidine-4,8-diamine

> <PUBCHEM_IUPAC_TRADITIONAL_NAME>
cyclopropylmethyl-[4-[2-(methylthio)anilino]-2-piperazino-pyrimido[5,4-d]pyrimidin-8-yl]amine

> <PUBCHEM_IUPAC_INCHI>
InChI=1S/C21H26N8S/c1-30-16-5-3-2-4-15(16)26-20-17-18(19(25-13-24-17)23-12-14-6-7-14)27-21(28-20)29-10-8-22-9-11-29/h2-5,13-14,22H,6-12H2,1H3,(H,23,24,25)(H,26,27,28)

> <PUBCHEM_IUPAC_INCHIKEY>
HFLMLZKGLUEWBU-UHFFFAOYSA-N

> <PUBCHEM_XLOGP3_AA>
3.2

> <PUBCHEM_EXACT_MASS>
422.20011404

> <PUBCHEM_MOLECULAR_FORMULA>
C21H26N8S

> <PUBCHEM_MOLECULAR_WEIGHT>
422.6

> <PUBCHEM_SMILES>
CSC1=CC=CC=C1NC2=NC(=NC3=C2N=CN=C3NCC4CC4)N5CCNCC5

> <PUBCHEM_OPENEYE_CAN_SMILES>
CSC1=CC=CC=C1NC2=NC(=NC3=C2N=CN=C3NCC4CC4)N5CCNCC5

> <PUBCHEM_OPENEYE_ISO_SMILES>
CSC1=CC=CC=C1NC2=NC(=NC3=C2N=CN=C3NCC4CC4)N5CCNCC5

> <PUBCHEM_CACTVS_TPSA>
116

> <PUBCHEM_MONOISOTOPIC_WEIGHT>
422.20011404

> <PUBCHEM_TOTAL_CHARGE>
0

> <PUBCHEM_HEAVY_ATOM_COUNT>
30

> <PUBCHEM_ATOM_DEF_STEREO_COUNT>
0

> <PUBCHEM_ATOM_UDEF_STEREO_COUNT>
0

> <PUBCHEM_BOND_DEF_STEREO_COUNT>
0

> <PUBCHEM_BOND_UDEF_STEREO_COUNT>
0

> <PUBCHEM_ISOTOPIC_ATOM_COUNT>
0

> <PUBCHEM_COMPONENT_COUNT>
1

> <PUBCHEM_CACTVS_TAUTO_COUNT>
-1

> <PUBCHEM_COORDINATE_TYPE>
1
5
255

> <PUBCHEM_BONDANNOTATIONS>
14  15  8
15  21  8
21  22  8
24  25  8
24  26  8
25  27  8
26  28  8
27  29  8
28  29  8
5  15  8
5  20  8
6  14  8
6  23  8
7  20  8
7  22  8
8  21  8
8  23  8

$$$$
