23532567
  -OEChem-03202505282D

 54 58  0     0  0  0  0  0  0999 V2000
    9.4814   -2.5374    0.0000 Cl  0  0  0  0  0  0  0  0  0  0  0  0
    6.0175   -2.4973    0.0000 Cl  0  0  0  0  0  0  0  0  0  0  0  0
    7.7331    1.5172    0.0000 F   0  0  0  0  0  0  0  0  0  0  0  0
    6.0010    4.5172    0.0000 F   0  0  0  0  0  0  0  0  0  0  0  0
    9.5312   -1.5069    0.0000 O   0  0  0  0  0  0  0  0  0  0  0  0
    2.5369   -2.4828    0.0000 N   0  0  0  0  0  0  0  0  0  0  0  0
    7.7610   -1.5174    0.0000 N   0  0  0  0  0  0  0  0  0  0  0  0
    8.6671    0.0380    0.0000 N   0  0  0  0  0  0  0  0  0  0  0  0
    4.2690   -1.4828    0.0000 C   0  0  0  0  0  0  0  0  0  0  0  0
    4.2690   -2.4828    0.0000 C   0  0  0  0  0  0  0  0  0  0  0  0
    3.4030   -0.9828    0.0000 C   0  0  0  0  0  0  0  0  0  0  0  0
    5.1350   -0.9828    0.0000 C   0  0  0  0  0  0  0  0  0  0  0  0
    3.4030   -2.9828    0.0000 C   0  0  0  0  0  0  0  0  0  0  0  0
    2.5369   -1.4828    0.0000 C   0  0  0  0  0  0  0  0  0  0  0  0
    6.0010   -1.4828    0.0000 C   0  0  0  0  0  0  0  0  0  0  0  0
    6.8671   -0.9828    0.0000 C   0  0  0  0  0  0  0  0  0  0  0  0
    5.1350    0.0172    0.0000 C   0  0  0  0  0  0  0  0  0  0  0  0
    6.8671    0.0172    0.0000 C   0  0  0  0  0  0  0  0  0  0  0  0
    6.0010    0.5172    0.0000 C   0  0  0  0  0  0  0  0  0  0  0  0
    7.7610    0.5519    0.0000 C   0  0  0  0  0  0  0  0  0  0  0  0
    6.0010    1.5172    0.0000 C   0  0  0  0  0  0  0  0  0  0  0  0
    8.6671   -1.0036    0.0000 C   0  0  0  0  0  0  0  0  0  0  0  0
    7.7494   -2.5174    0.0000 C   0  0  0  0  0  0  0  0  0  0  0  0
    6.8671    2.0172    0.0000 C   0  0  0  0  0  0  0  0  0  0  0  0
    5.1350    2.0172    0.0000 C   0  0  0  0  0  0  0  0  0  0  0  0
    8.6096   -3.0273    0.0000 C   0  0  0  0  0  0  0  0  0  0  0  0
    6.8777   -3.0073    0.0000 C   0  0  0  0  0  0  0  0  0  0  0  0
    6.8671    3.0172    0.0000 C   0  0  0  0  0  0  0  0  0  0  0  0
    5.1350    3.0172    0.0000 C   0  0  0  0  0  0  0  0  0  0  0  0
    6.0010    3.5172    0.0000 C   0  0  0  0  0  0  0  0  0  0  0  0
    8.5981   -4.0273    0.0000 C   0  0  0  0  0  0  0  0  0  0  0  0
    6.8661   -4.0072    0.0000 C   0  0  0  0  0  0  0  0  0  0  0  0
    7.7263   -4.5172    0.0000 C   0  0  0  0  0  0  0  0  0  0  0  0
    4.2690   -0.8628    0.0000 H   0  0  0  0  0  0  0  0  0  0  0  0
    4.4810   -3.0654    0.0000 H   0  0  0  0  0  0  0  0  0  0  0  0
    4.8796   -2.3751    0.0000 H   0  0  0  0  0  0  0  0  0  0  0  0
    3.8015   -0.5078    0.0000 H   0  0  0  0  0  0  0  0  0  0  0  0
    3.0044   -0.5078    0.0000 H   0  0  0  0  0  0  0  0  0  0  0  0
    3.0044   -3.4577    0.0000 H   0  0  0  0  0  0  0  0  0  0  0  0
    3.8015   -3.4577    0.0000 H   0  0  0  0  0  0  0  0  0  0  0  0
    2.3249   -0.9002    0.0000 H   0  0  0  0  0  0  0  0  0  0  0  0
    1.9264   -1.5904    0.0000 H   0  0  0  0  0  0  0  0  0  0  0  0
    2.0000   -2.7928    0.0000 H   0  0  0  0  0  0  0  0  0  0  0  0
    6.0010   -2.1028    0.0000 H   0  0  0  0  0  0  0  0  0  0  0  0
    4.5981    0.3272    0.0000 H   0  0  0  0  0  0  0  0  0  0  0  0
    8.1546    1.0309    0.0000 H   0  0  0  0  0  0  0  0  0  0  0  0
    7.3564    1.0217    0.0000 H   0  0  0  0  0  0  0  0  0  0  0  0
    9.2028    0.3501    0.0000 H   0  0  0  0  0  0  0  0  0  0  0  0
    4.5981    1.7072    0.0000 H   0  0  0  0  0  0  0  0  0  0  0  0
    7.4040    3.3272    0.0000 H   0  0  0  0  0  0  0  0  0  0  0  0
    4.5981    3.3272    0.0000 H   0  0  0  0  0  0  0  0  0  0  0  0
    9.1314   -4.3435    0.0000 H   0  0  0  0  0  0  0  0  0  0  0  0
    6.3256   -4.3110    0.0000 H   0  0  0  0  0  0  0  0  0  0  0  0
    7.7192   -5.1372    0.0000 H   0  0  0  0  0  0  0  0  0  0  0  0
  1 26  1  0  0  0  0
  2 27  1  0  0  0  0
  3 24  1  0  0  0  0
  4 30  1  0  0  0  0
  5 22  2  0  0  0  0
  6 13  1  0  0  0  0
  6 14  1  0  0  0  0
  6 43  1  0  0  0  0
  7 16  1  0  0  0  0
  7 22  1  0  0  0  0
  7 23  1  0  0  0  0
  8 20  1  0  0  0  0
  8 22  1  0  0  0  0
  8 48  1  0  0  0  0
  9 10  1  0  0  0  0
  9 11  1  0  0  0  0
  9 12  1  0  0  0  0
  9 34  1  0  0  0  0
 10 13  1  0  0  0  0
 10 35  1  0  0  0  0
 10 36  1  0  0  0  0
 11 14  1  0  0  0  0
 11 37  1  0  0  0  0
 11 38  1  0  0  0  0
 12 15  1  0  0  0  0
 12 17  2  0  0  0  0
 13 39  1  0  0  0  0
 13 40  1  0  0  0  0
 14 41  1  0  0  0  0
 14 42  1  0  0  0  0
 15 16  2  0  0  0  0
 15 44  1  0  0  0  0
 16 18  1  0  0  0  0
 17 19  1  0  0  0  0
 17 45  1  0  0  0  0
 18 19  2  0  0  0  0
 18 20  1  0  0  0  0
 19 21  1  0  0  0  0
 20 46  1  0  0  0  0
 20 47  1  0  0  0  0
 21 24  2  0  0  0  0
 21 25  1  0  0  0  0
 23 26  2  0  0  0  0
 23 27  1  0  0  0  0
 24 28  1  0  0  0  0
 25 29  2  0  0  0  0
 25 49  1  0  0  0  0
 26 31  1  0  0  0  0
 27 32  2  0  0  0  0
 28 30  2  0  0  0  0
 28 50  1  0  0  0  0
 29 30  1  0  0  0  0
 29 51  1  0  0  0  0
 31 33  2  0  0  0  0
 31 52  1  0  0  0  0
 32 33  1  0  0  0  0
 32 53  1  0  0  0  0
 33 54  1  0  0  0  0
M  END
> <PUBCHEM_COMPOUND_CID>
23532567

> <PUBCHEM_COMPOUND_CANONICALIZED>
1

> <PUBCHEM_CACTVS_COMPLEXITY>
687

> <PUBCHEM_CACTVS_HBOND_ACCEPTOR>
4

> <PUBCHEM_CACTVS_HBOND_DONOR>
2

> <PUBCHEM_CACTVS_ROTATABLE_BOND>
3

> <PUBCHEM_CACTVS_SUBSKEYS>
AAADceB7IYAGAAAAAAAAAAAAAAAAAAAAAAA8eMECAAAAAACxUAAAHwIQAAAADQrBGCwxwIPAAACIAiRCUACCAAAhBwAIiIAIZoiIIGLB05HEIAholgLIyCcQgMAOwAACQACSABCAAASAASQAIAAAAAAAAA==

> <PUBCHEM_IUPAC_OPENEYE_NAME>
1-(2,6-dichlorophenyl)-5-(2,4-difluorophenyl)-7-(4-piperidyl)-3,4-dihydroquinazolin-2-one

> <PUBCHEM_IUPAC_CAS_NAME>
1-(2,6-dichlorophenyl)-5-(2,4-difluorophenyl)-7-(4-piperidinyl)-3,4-dihydroquinazolin-2-one

> <PUBCHEM_IUPAC_NAME_MARKUP>
1-(2,6-dichlorophenyl)-5-(2,4-difluorophenyl)-7-piperidin-4-yl-3,4-dihydroquinazolin-2-one

> <PUBCHEM_IUPAC_NAME>
1-(2,6-dichlorophenyl)-5-(2,4-difluorophenyl)-7-piperidin-4-yl-3,4-dihydroquinazolin-2-one

> <PUBCHEM_IUPAC_SYSTEMATIC_NAME>
1-[2,6-bis(chloranyl)phenyl]-5-[2,4-bis(fluoranyl)phenyl]-7-piperidin-4-yl-3,4-dihydroquinazolin-2-one

> <PUBCHEM_IUPAC_TRADITIONAL_NAME>
1-(2,6-dichlorophenyl)-5-(2,4-difluorophenyl)-7-(4-piperidyl)-3,4-dihydroquinazolin-2-one

> <PUBCHEM_IUPAC_INCHI>
InChI=1S/C25H21Cl2F2N3O/c26-20-2-1-3-21(27)24(20)32-23-11-15(14-6-8-30-9-7-14)10-18(19(23)13-31-25(32)33)17-5-4-16(28)12-22(17)29/h1-5,10-12,14,30H,6-9,13H2,(H,31,33)

> <PUBCHEM_IUPAC_INCHIKEY>
NEQVXWUMTYNMHH-UHFFFAOYSA-N

> <PUBCHEM_XLOGP3_AA>
5.4

> <PUBCHEM_EXACT_MASS>
487.1029740

> <PUBCHEM_MOLECULAR_FORMULA>
C25H21Cl2F2N3O

> <PUBCHEM_MOLECULAR_WEIGHT>
488.4

> <PUBCHEM_SMILES>
C1CNCCC1C2=CC(=C3CNC(=O)N(C3=C2)C4=C(C=CC=C4Cl)Cl)C5=C(C=C(C=C5)F)F

> <PUBCHEM_OPENEYE_CAN_SMILES>
C1CNCCC1C2=CC(=C3CNC(=O)N(C3=C2)C4=C(C=CC=C4Cl)Cl)C5=C(C=C(C=C5)F)F

> <PUBCHEM_OPENEYE_ISO_SMILES>
C1CNCCC1C2=CC(=C3CNC(=O)N(C3=C2)C4=C(C=CC=C4Cl)Cl)C5=C(C=C(C=C5)F)F

> <PUBCHEM_CACTVS_TPSA>
44.4

> <PUBCHEM_MONOISOTOPIC_WEIGHT>
487.1029740

> <PUBCHEM_TOTAL_CHARGE>
0

> <PUBCHEM_HEAVY_ATOM_COUNT>
33

> <PUBCHEM_ATOM_DEF_STEREO_COUNT>
0

> <PUBCHEM_ATOM_UDEF_STEREO_COUNT>
0

> <PUBCHEM_BOND_DEF_STEREO_COUNT>
0

> <PUBCHEM_BOND_UDEF_STEREO_COUNT>
0

> <PUBCHEM_ISOTOPIC_ATOM_COUNT>
0

> <PUBCHEM_COMPONENT_COUNT>
1

> <PUBCHEM_CACTVS_TAUTO_COUNT>
-1

> <PUBCHEM_COORDINATE_TYPE>
1
5
255

> <PUBCHEM_BONDANNOTATIONS>
12  15  8
12  17  8
15  16  8
16  18  8
17  19  8
18  19  8
21  24  8
21  25  8
23  26  8
23  27  8
24  28  8
25  29  8
26  31  8
27  32  8
28  30  8
29  30  8
31  33  8
32  33  8

$$$$
