10074667
  -OEChem-03202506592D

 62 69  0     1  0  0  0  0  0999 V2000
    7.2752    2.5420    0.0000 O   0  0  0  0  0  0  0  0  0  0  0  0
    9.0770   -1.1998    0.0000 O   0  0  0  0  0  0  0  0  0  0  0  0
    2.3325   -0.9397    0.0000 O   0  0  0  0  0  0  0  0  0  0  0  0
    2.0000    0.8428    0.0000 O   0  0  0  0  0  0  0  0  0  0  0  0
    6.1907   -4.4378    0.0000 O   0  0  0  0  0  0  0  0  0  0  0  0
    3.0395    4.2199    0.0000 O   0  0  0  0  0  0  0  0  0  0  0  0
    6.6772   -0.4226    0.0000 N   0  0  0  0  0  0  0  0  0  0  0  0
    5.9931    1.4568    0.0000 N   0  0  0  0  0  0  0  0  0  0  0  0
   10.7677    0.1693    0.0000 N   0  0  0  0  0  0  0  0  0  0  0  0
    7.7530    0.5935    0.0000 C   0  0  2  0  0  0  0  0  0  0  0  0
    9.0246   -0.2012    0.0000 C   0  0  1  0  0  0  0  0  0  0  0  0
    8.0118    1.5594    0.0000 C   0  0  3  0  0  0  0  0  0  0  0  0
    9.8018    0.4282    0.0000 C   0  0  1  0  0  0  0  0  0  0  0  0
    9.4434    1.3617    0.0000 C   0  0  0  0  0  0  0  0  0  0  0  0
    5.6924   -0.2489    0.0000 C   0  0  0  0  0  0  0  0  0  0  0  0
    5.3503    0.6908    0.0000 C   0  0  0  0  0  0  0  0  0  0  0  0
    5.0352   -1.0571    0.0000 C   0  0  0  0  0  0  0  0  0  0  0  0
    4.3274    0.8874    0.0000 C   0  0  0  0  0  0  0  0  0  0  0  0
    6.6502   -1.4160    0.0000 C   0  0  0  0  0  0  0  0  0  0  0  0
    7.4941   -0.3725    0.0000 C   0  0  0  0  0  0  0  0  0  0  0  0
    5.3339    2.2005    0.0000 C   0  0  0  0  0  0  0  0  0  0  0  0
    5.7232   -1.7742    0.0000 C   0  0  0  0  0  0  0  0  0  0  0  0
    4.0080   -0.8841    0.0000 C   0  0  0  0  0  0  0  0  0  0  0  0
    4.3935    1.8791    0.0000 C   0  0  0  0  0  0  0  0  0  0  0  0
    3.6518    0.0947    0.0000 C   0  0  0  0  0  0  0  0  0  0  0  0
    3.1904   -1.5195    0.0000 C   0  0  0  0  0  0  0  0  0  0  0  0
    7.4661   -2.0532    0.0000 C   0  0  0  0  0  0  0  0  0  0  0  0
    5.5478   -2.7945    0.0000 C   0  0  0  0  0  0  0  0  0  0  0  0
    5.5493    3.2130    0.0000 C   0  0  0  0  0  0  0  0  0  0  0  0
    2.6170    0.0559    0.0000 C   0  0  0  0  0  0  0  0  0  0  0  0
    3.6033    2.5478    0.0000 C   0  0  0  0  0  0  0  0  0  0  0  0
   11.4748    0.8764    0.0000 C   0  0  0  0  0  0  0  0  0  0  0  0
    9.9680   -1.6538    0.0000 C   0  0  0  0  0  0  0  0  0  0  0  0
    7.3143   -3.0772    0.0000 C   0  0  0  0  0  0  0  0  0  0  0  0
    6.3487   -3.4503    0.0000 C   0  0  0  0  0  0  0  0  0  0  0  0
    4.7748    3.8999    0.0000 C   0  0  0  0  0  0  0  0  0  0  0  0
    3.7953    3.5651    0.0000 C   0  0  0  0  0  0  0  0  0  0  0  0
    9.5910   -0.4533    0.0000 H   0  0  0  0  0  0  0  0  0  0  0  0
    7.9850    0.9400    0.0000 H   0  0  0  0  0  0  0  0  0  0  0  0
   10.2167    0.8889    0.0000 H   0  0  0  0  0  0  0  0  0  0  0  0
   10.0512    1.4841    0.0000 H   0  0  0  0  0  0  0  0  0  0  0  0
    9.4244    1.9814    0.0000 H   0  0  0  0  0  0  0  0  0  0  0  0
    6.8953   -0.2120    0.0000 H   0  0  0  0  0  0  0  0  0  0  0  0
    7.3337   -0.9713    0.0000 H   0  0  0  0  0  0  0  0  0  0  0  0
    8.0930   -0.5329    0.0000 H   0  0  0  0  0  0  0  0  0  0  0  0
   10.9282   -0.4295    0.0000 H   0  0  0  0  0  0  0  0  0  0  0  0
    2.7912   -1.9939    0.0000 H   0  0  0  0  0  0  0  0  0  0  0  0
    3.6202   -1.9664    0.0000 H   0  0  0  0  0  0  0  0  0  0  0  0
    8.0418   -1.8230    0.0000 H   0  0  0  0  0  0  0  0  0  0  0  0
    4.9669   -3.0113    0.0000 H   0  0  0  0  0  0  0  0  0  0  0  0
    6.1383    3.4068    0.0000 H   0  0  0  0  0  0  0  0  0  0  0  0
    3.0190    2.3405    0.0000 H   0  0  0  0  0  0  0  0  0  0  0  0
   11.9132    0.4380    0.0000 H   0  0  0  0  0  0  0  0  0  0  0  0
   11.9132    1.3148    0.0000 H   0  0  0  0  0  0  0  0  0  0  0  0
   11.0364    1.3148    0.0000 H   0  0  0  0  0  0  0  0  0  0  0  0
    9.6865   -2.2062    0.0000 H   0  0  0  0  0  0  0  0  0  0  0  0
   10.5204   -1.9353    0.0000 H   0  0  0  0  0  0  0  0  0  0  0  0
   10.2495   -1.1014    0.0000 H   0  0  0  0  0  0  0  0  0  0  0  0
    7.7985   -3.4644    0.0000 H   0  0  0  0  0  0  0  0  0  0  0  0
    4.8969    4.5078    0.0000 H   0  0  0  0  0  0  0  0  0  0  0  0
    6.6719   -4.8287    0.0000 H   0  0  0  0  0  0  0  0  0  0  0  0
    3.1568    4.8287    0.0000 H   0  0  0  0  0  0  0  0  0  0  0  0
  1 10  1  0  0  0  0
  1 12  1  0  0  0  0
 11  2  1  1  0  0  0
  2 33  1  0  0  0  0
  3 26  1  0  0  0  0
  3 30  1  0  0  0  0
  4 30  2  0  0  0  0
  5 35  1  0  0  0  0
  5 61  1  0  0  0  0
  6 37  1  0  0  0  0
  6 62  1  0  0  0  0
  7 10  1  0  0  0  0
  7 15  1  0  0  0  0
  7 19  1  0  0  0  0
  8 12  1  0  0  0  0
  8 16  1  0  0  0  0
  8 21  1  0  0  0  0
 13  9  1  1  0  0  0
  9 32  1  0  0  0  0
  9 46  1  0  0  0  0
 10 11  1  0  0  0  0
 10 20  1  6  0  0  0
 11 13  1  0  0  0  0
 11 38  1  0  0  0  0
 12 14  1  0  0  0  0
 12 39  1  0  0  0  0
 13 14  1  0  0  0  0
 13 40  1  0  0  0  0
 14 41  1  0  0  0  0
 14 42  1  0  0  0  0
 15 16  2  0  0  0  0
 15 17  1  0  0  0  0
 16 18  1  0  0  0  0
 17 22  1  0  0  0  0
 17 23  2  0  0  0  0
 18 24  1  0  0  0  0
 18 25  2  0  0  0  0
 19 22  2  0  0  0  0
 19 27  1  0  0  0  0
 20 43  1  0  0  0  0
 20 44  1  0  0  0  0
 20 45  1  0  0  0  0
 21 24  2  0  0  0  0
 21 29  1  0  0  0  0
 22 28  1  0  0  0  0
 23 25  1  0  0  0  0
 23 26  1  0  0  0  0
 24 31  1  0  0  0  0
 25 30  1  0  0  0  0
 26 47  1  0  0  0  0
 26 48  1  0  0  0  0
 27 34  2  0  0  0  0
 27 49  1  0  0  0  0
 28 35  2  0  0  0  0
 28 50  1  0  0  0  0
 29 36  2  0  0  0  0
 29 51  1  0  0  0  0
 31 37  2  0  0  0  0
 31 52  1  0  0  0  0
 32 53  1  0  0  0  0
 32 54  1  0  0  0  0
 32 55  1  0  0  0  0
 33 56  1  0  0  0  0
 33 57  1  0  0  0  0
 33 58  1  0  0  0  0
 34 35  1  0  0  0  0
 34 59  1  0  0  0  0
 36 37  1  0  0  0  0
 36 60  1  0  0  0  0
M  END
> <PUBCHEM_COMPOUND_CID>
10074667

> <PUBCHEM_COMPOUND_CANONICALIZED>
1

> <PUBCHEM_CACTVS_COMPLEXITY>
968

> <PUBCHEM_CACTVS_HBOND_ACCEPTOR>
7

> <PUBCHEM_CACTVS_HBOND_DONOR>
3

> <PUBCHEM_CACTVS_ROTATABLE_BOND>
2

> <PUBCHEM_CACTVS_SUBSKEYS>
AAADceB7OAAAAAAAAAAAAAAAAAAAAWLEgAA0YMEABYAAAFix/gAAHgAQCAAADDzhngYyzvPMFgCoAyTyTACCgCQlMiAI2KE+fNgLZvLC9ZufcQhm0BHa+Qf+2fOeyEADQAASACCQgAaAACQAQAAAAAAAAA==

> <PUBCHEM_IUPAC_OPENEYE_NAME>
(2S,3R,4R)-11,23-dihydroxy-3-methoxy-2-methyl-4-(methylamino)-17,29-dioxa-1,7-diazaoctacyclo[12.12.2.12,6.07,28.08,13.015,19.020,27.021,26]nonacosa-8(13),9,11,14,19,21(26),22,24,27-nonaen-16-one

> <PUBCHEM_IUPAC_CAS_NAME>
(2S,3R,4R)-11,23-dihydroxy-3-methoxy-2-methyl-4-(methylamino)-17,29-dioxa-1,7-diazaoctacyclo[12.12.2.12,6.07,28.08,13.015,19.020,27.021,26]nonacosa-8(13),9,11,14,19,21(26),22,24,27-nonaen-16-one

> <PUBCHEM_IUPAC_NAME_MARKUP>
(2<I>S</I>,3<I>R</I>,4<I>R</I>)-11,23-dihydroxy-3-methoxy-2-methyl-4-(methylamino)-17,29-dioxa-1,7-diazaoctacyclo[12.12.2.1<SUP>2,6</SUP>.0<SUP>7,28</SUP>.0<SUP>8,13</SUP>.0<SUP>15,19</SUP>.0<SUP>20,27</SUP>.0<SUP>21,26</SUP>]nonacosa-8(13),9,11,14,19,21(26),22,24,27-nonaen-16-one

> <PUBCHEM_IUPAC_NAME>
(2S,3R,4R)-11,23-dihydroxy-3-methoxy-2-methyl-4-(methylamino)-17,29-dioxa-1,7-diazaoctacyclo[12.12.2.12,6.07,28.08,13.015,19.020,27.021,26]nonacosa-8(13),9,11,14,19,21(26),22,24,27-nonaen-16-one

> <PUBCHEM_IUPAC_SYSTEMATIC_NAME>
(2S,3R,4R)-3-methoxy-2-methyl-4-(methylamino)-11,23-bis(oxidanyl)-17,29-dioxa-1,7-diazaoctacyclo[12.12.2.12,6.07,28.08,13.015,19.020,27.021,26]nonacosa-8(13),9,11,14,19,21(26),22,24,27-nonaen-16-one

> <PUBCHEM_IUPAC_TRADITIONAL_NAME>
(2S,3R,4R)-11,23-dihydroxy-3-methoxy-2-methyl-4-(methylamino)-17,29-dioxa-1,7-diazaoctacyclo[12.12.2.12,6.07,28.08,13.015,19.020,27.021,26]nonacosa-8(13),9,11,14,19,21(26),22,24,27-nonaen-16-one

> <PUBCHEM_IUPAC_INCHI>
InChI=1S/C28H25N3O6/c1-28-26(35-3)17(29-2)10-20(37-28)30-18-6-4-12(32)8-14(18)22-23-16(11-36-27(23)34)21-15-9-13(33)5-7-19(15)31(28)25(21)24(22)30/h4-9,17,20,26,29,32-33H,10-11H2,1-3H3/t17-,20?,26-,28+/m1/s1

> <PUBCHEM_IUPAC_INCHIKEY>
GZJKVFKNTQXSQM-ZGQXJOJZSA-N

> <PUBCHEM_XLOGP3_AA>
3.1

> <PUBCHEM_EXACT_MASS>
499.17433553

> <PUBCHEM_MOLECULAR_FORMULA>
C28H25N3O6

> <PUBCHEM_MOLECULAR_WEIGHT>
499.5

> <PUBCHEM_SMILES>
C[C@@]12[C@@H]([C@@H](CC(O1)N3C4=C(C=C(C=C4)O)C5=C6C(=C7C8=C(N2C7=C53)C=CC(=C8)O)COC6=O)NC)OC

> <PUBCHEM_OPENEYE_CAN_SMILES>
CC12C(C(CC(O1)N3C4=C(C=C(C=C4)O)C5=C6C(=C7C8=C(N2C7=C53)C=CC(=C8)O)COC6=O)NC)OC

> <PUBCHEM_OPENEYE_ISO_SMILES>
C[C@@]12[C@@H]([C@@H](CC(O1)N3C4=C(C=C(C=C4)O)C5=C6C(=C7C8=C(N2C7=C53)C=CC(=C8)O)COC6=O)NC)OC

> <PUBCHEM_CACTVS_TPSA>
107

> <PUBCHEM_MONOISOTOPIC_WEIGHT>
499.17433553

> <PUBCHEM_TOTAL_CHARGE>
0

> <PUBCHEM_HEAVY_ATOM_COUNT>
37

> <PUBCHEM_ATOM_DEF_STEREO_COUNT>
3

> <PUBCHEM_ATOM_UDEF_STEREO_COUNT>
1

> <PUBCHEM_BOND_DEF_STEREO_COUNT>
0

> <PUBCHEM_BOND_UDEF_STEREO_COUNT>
0

> <PUBCHEM_ISOTOPIC_ATOM_COUNT>
0

> <PUBCHEM_COMPONENT_COUNT>
1

> <PUBCHEM_CACTVS_TAUTO_COUNT>
-1

> <PUBCHEM_COORDINATE_TYPE>
1
5
255

> <PUBCHEM_BONDANNOTATIONS>
10  20  6
12  14  3
15  16  8
15  17  8
16  18  8
17  22  8
17  23  8
18  24  8
18  25  8
19  22  8
19  27  8
11  2  5
21  24  8
21  29  8
22  28  8
23  25  8
24  31  8
27  34  8
28  35  8
29  36  8
31  37  8
34  35  8
36  37  8
7  15  8
7  19  8
8  16  8
8  21  8
13  9  5

$$$$
