44565013
  -OEChem-03202506422D

 46 50  0     0  0  0  0  0  0999 V2000
    4.6783    2.4690    0.0000 S   0  0  0  0  0  0  0  0  0  0  0  0
    4.6783    0.8595    0.0000 N   0  0  0  0  0  0  0  0  0  0  0  0
    8.2619   -0.0678    0.0000 N   0  0  0  0  0  0  0  0  0  0  0  0
   11.2619   -1.7998    0.0000 N   0  0  0  0  0  0  0  0  0  0  0  0
    9.7619   -0.9338    0.0000 N   0  0  0  0  0  0  0  0  0  0  0  0
   13.8007   -2.2998    0.0000 N   0  0  0  0  0  0  0  0  0  0  0  0
   12.8497   -2.6088    0.0000 N   0  0  0  0  0  0  0  0  0  0  0  0
    9.7619    0.7982    0.0000 N   0  0  0  0  0  0  0  0  0  0  0  0
    6.2619    1.6643    0.0000 C   0  0  0  0  0  0  0  0  0  0  0  0
    5.2619    1.6643    0.0000 C   0  0  0  0  0  0  0  0  0  0  0  0
    7.7619    0.7982    0.0000 C   0  0  0  0  0  0  0  0  0  0  0  0
    6.7619    0.7982    0.0000 C   0  0  0  0  0  0  0  0  0  0  0  0
    3.7320    2.1643    0.0000 C   0  0  0  0  0  0  0  0  0  0  0  0
    3.7320    1.1643    0.0000 C   0  0  0  0  0  0  0  0  0  0  0  0
    6.7619    2.5303    0.0000 C   0  0  0  0  0  0  0  0  0  0  0  0
    8.2619    1.6643    0.0000 C   0  0  0  0  0  0  0  0  0  0  0  0
    7.7619    2.5303    0.0000 C   0  0  0  0  0  0  0  0  0  0  0  0
    2.8660    2.6643    0.0000 C   0  0  0  0  0  0  0  0  0  0  0  0
    2.8660    0.6643    0.0000 C   0  0  0  0  0  0  0  0  0  0  0  0
    9.2619   -0.0678    0.0000 C   0  0  0  0  0  0  0  0  0  0  0  0
   12.2619   -1.7998    0.0000 C   0  0  0  0  0  0  0  0  0  0  0  0
   10.7619   -0.9338    0.0000 C   0  0  0  0  0  0  0  0  0  0  0  0
   13.8007   -1.2998    0.0000 C   0  0  0  0  0  0  0  0  0  0  0  0
   12.8497   -0.9908    0.0000 C   0  0  0  0  0  0  0  0  0  0  0  0
    2.0000    2.1643    0.0000 C   0  0  0  0  0  0  0  0  0  0  0  0
    2.0000    1.1643    0.0000 C   0  0  0  0  0  0  0  0  0  0  0  0
   11.2619   -0.0678    0.0000 C   0  0  0  0  0  0  0  0  0  0  0  0
   14.6097   -0.7121    0.0000 C   0  0  0  0  0  0  0  0  0  0  0  0
   10.7619    0.7982    0.0000 C   0  0  0  0  0  0  0  0  0  0  0  0
    6.4519    0.2613    0.0000 H   0  0  0  0  0  0  0  0  0  0  0  0
    6.4519    3.0672    0.0000 H   0  0  0  0  0  0  0  0  0  0  0  0
    8.8819    1.6643    0.0000 H   0  0  0  0  0  0  0  0  0  0  0  0
    7.9519   -0.6047    0.0000 H   0  0  0  0  0  0  0  0  0  0  0  0
    8.0719    3.0672    0.0000 H   0  0  0  0  0  0  0  0  0  0  0  0
    2.8660    3.2843    0.0000 H   0  0  0  0  0  0  0  0  0  0  0  0
    2.8660    0.0443    0.0000 H   0  0  0  0  0  0  0  0  0  0  0  0
   10.9519   -2.3368    0.0000 H   0  0  0  0  0  0  0  0  0  0  0  0
   12.6581   -0.4012    0.0000 H   0  0  0  0  0  0  0  0  0  0  0  0
    1.4631    2.4743    0.0000 H   0  0  0  0  0  0  0  0  0  0  0  0
    1.4631    0.8543    0.0000 H   0  0  0  0  0  0  0  0  0  0  0  0
   14.3023   -2.6643    0.0000 H   0  0  0  0  0  0  0  0  0  0  0  0
   11.8819   -0.0678    0.0000 H   0  0  0  0  0  0  0  0  0  0  0  0
   14.9742   -1.2136    0.0000 H   0  0  0  0  0  0  0  0  0  0  0  0
   15.1113   -0.3476    0.0000 H   0  0  0  0  0  0  0  0  0  0  0  0
   14.2453   -0.2105    0.0000 H   0  0  0  0  0  0  0  0  0  0  0  0
   11.0719    1.3352    0.0000 H   0  0  0  0  0  0  0  0  0  0  0  0
  1 10  1  0  0  0  0
  1 13  1  0  0  0  0
  2 10  2  0  0  0  0
  2 14  1  0  0  0  0
  3 11  1  0  0  0  0
  3 20  1  0  0  0  0
  3 33  1  0  0  0  0
  4 21  1  0  0  0  0
  4 22  1  0  0  0  0
  4 37  1  0  0  0  0
  5 20  1  0  0  0  0
  5 22  2  0  0  0  0
  6  7  1  0  0  0  0
  6 23  1  0  0  0  0
  6 41  1  0  0  0  0
  7 21  2  0  0  0  0
  8 20  2  0  0  0  0
  8 29  1  0  0  0  0
  9 10  1  0  0  0  0
  9 12  2  0  0  0  0
  9 15  1  0  0  0  0
 11 12  1  0  0  0  0
 11 16  2  0  0  0  0
 12 30  1  0  0  0  0
 13 14  1  0  0  0  0
 13 18  2  0  0  0  0
 14 19  2  0  0  0  0
 15 17  2  0  0  0  0
 15 31  1  0  0  0  0
 16 17  1  0  0  0  0
 16 32  1  0  0  0  0
 17 34  1  0  0  0  0
 18 25  1  0  0  0  0
 18 35  1  0  0  0  0
 19 26  1  0  0  0  0
 19 36  1  0  0  0  0
 21 24  1  0  0  0  0
 22 27  1  0  0  0  0
 23 24  2  0  0  0  0
 23 28  1  0  0  0  0
 24 38  1  0  0  0  0
 25 26  2  0  0  0  0
 25 39  1  0  0  0  0
 26 40  1  0  0  0  0
 27 29  2  0  0  0  0
 27 42  1  0  0  0  0
 28 43  1  0  0  0  0
 28 44  1  0  0  0  0
 28 45  1  0  0  0  0
 29 46  1  0  0  0  0
M  END
> <PUBCHEM_COMPOUND_CID>
44565013

> <PUBCHEM_COMPOUND_CANONICALIZED>
1

> <PUBCHEM_CACTVS_COMPLEXITY>
537

> <PUBCHEM_CACTVS_HBOND_ACCEPTOR>
7

> <PUBCHEM_CACTVS_HBOND_DONOR>
3

> <PUBCHEM_CACTVS_ROTATABLE_BOND>
5

> <PUBCHEM_CACTVS_SUBSKEYS>
AAADceB7gABAAAAAAAAAAAAAAAAAAWLAAAA8YIAAAAAAAFgB/gAAHAQYAAAADAjBXgQ/8bbrEAimAzZnZACT9KtxCrhd+Tw4ZJiIKOLg2dGEpAh4mALoyCcQgAAOAAAAQAAAAQAAAACAAAACAAAAAAAAAA==

> <PUBCHEM_IUPAC_OPENEYE_NAME>
N2-[3-(1,3-benzothiazol-2-yl)phenyl]-N4-(5-methyl-1H-pyrazol-3-yl)pyrimidine-2,4-diamine

> <PUBCHEM_IUPAC_CAS_NAME>
N2-[3-(1,3-benzothiazol-2-yl)phenyl]-N4-(5-methyl-1H-pyrazol-3-yl)pyrimidine-2,4-diamine

> <PUBCHEM_IUPAC_NAME_MARKUP>
2-<I>N</I>-[3-(1,3-benzothiazol-2-yl)phenyl]-4-<I>N</I>-(5-methyl-1<I>H</I>-pyrazol-3-yl)pyrimidine-2,4-diamine

> <PUBCHEM_IUPAC_NAME>
2-N-[3-(1,3-benzothiazol-2-yl)phenyl]-4-N-(5-methyl-1H-pyrazol-3-yl)pyrimidine-2,4-diamine

> <PUBCHEM_IUPAC_SYSTEMATIC_NAME>
N2-[3-(1,3-benzothiazol-2-yl)phenyl]-N4-(5-methyl-1H-pyrazol-3-yl)pyrimidine-2,4-diamine

> <PUBCHEM_IUPAC_TRADITIONAL_NAME>
[2-[3-(1,3-benzothiazol-2-yl)anilino]pyrimidin-4-yl]-(5-methyl-1H-pyrazol-3-yl)amine

> <PUBCHEM_IUPAC_INCHI>
InChI=1S/C21H17N7S/c1-13-11-19(28-27-13)25-18-9-10-22-21(26-18)23-15-6-4-5-14(12-15)20-24-16-7-2-3-8-17(16)29-20/h2-12H,1H3,(H3,22,23,25,26,27,28)

> <PUBCHEM_IUPAC_INCHIKEY>
LQZVTJLMRRUWTJ-UHFFFAOYSA-N

> <PUBCHEM_XLOGP3_AA>
5.1

> <PUBCHEM_EXACT_MASS>
399.12661475

> <PUBCHEM_MOLECULAR_FORMULA>
C21H17N7S

> <PUBCHEM_MOLECULAR_WEIGHT>
399.5

> <PUBCHEM_SMILES>
CC1=CC(=NN1)NC2=NC(=NC=C2)NC3=CC=CC(=C3)C4=NC5=CC=CC=C5S4

> <PUBCHEM_OPENEYE_CAN_SMILES>
CC1=CC(=NN1)NC2=NC(=NC=C2)NC3=CC=CC(=C3)C4=NC5=CC=CC=C5S4

> <PUBCHEM_OPENEYE_ISO_SMILES>
CC1=CC(=NN1)NC2=NC(=NC=C2)NC3=CC=CC(=C3)C4=NC5=CC=CC=C5S4

> <PUBCHEM_CACTVS_TPSA>
120

> <PUBCHEM_MONOISOTOPIC_WEIGHT>
399.12661475

> <PUBCHEM_TOTAL_CHARGE>
0

> <PUBCHEM_HEAVY_ATOM_COUNT>
29

> <PUBCHEM_ATOM_DEF_STEREO_COUNT>
0

> <PUBCHEM_ATOM_UDEF_STEREO_COUNT>
0

> <PUBCHEM_BOND_DEF_STEREO_COUNT>
0

> <PUBCHEM_BOND_UDEF_STEREO_COUNT>
0

> <PUBCHEM_ISOTOPIC_ATOM_COUNT>
0

> <PUBCHEM_COMPONENT_COUNT>
1

> <PUBCHEM_CACTVS_TAUTO_COUNT>
-1

> <PUBCHEM_COORDINATE_TYPE>
1
5
255

> <PUBCHEM_BONDANNOTATIONS>
1  10  8
1  13  8
11  12  8
11  16  8
13  14  8
13  18  8
14  19  8
15  17  8
16  17  8
18  25  8
19  26  8
2  10  8
2  14  8
21  24  8
22  27  8
23  24  8
25  26  8
27  29  8
5  20  8
5  22  8
6  23  8
6  7  8
7  21  8
8  20  8
8  29  8
9  12  8
9  15  8

$$$$
