24905315
  -OEChem-03202500002D

 42 45  0     1  0  0  0  0  0999 V2000
    5.9209    4.4658    0.0000 F   0  0  0  0  0  0  0  0  0  0  0  0
    7.2566    2.9772    0.0000 O   0  0  0  0  0  0  0  0  0  0  0  0
    4.6783   -0.9457    0.0000 N   0  0  0  0  0  0  0  0  0  0  0  0
    5.2619   -0.1410    0.0000 N   0  0  0  0  0  0  0  0  0  0  0  0
    2.8660   -1.1410    0.0000 N   0  0  0  0  0  0  0  0  0  0  0  0
    2.0000    0.3590    0.0000 N   0  0  0  0  0  0  0  0  0  0  0  0
    2.8660    1.8590    0.0000 N   0  0  0  0  0  0  0  0  0  0  0  0
    4.9889   -1.8962    0.0000 C   0  0  3  0  0  0  0  0  0  0  0  0
    4.9917   -3.5142    0.0000 C   0  0  3  0  0  0  0  0  0  0  0  0
    4.4026   -2.7063    0.0000 C   0  0  0  0  0  0  0  0  0  0  0  0
    5.9405   -2.2036    0.0000 C   0  0  0  0  0  0  0  0  0  0  0  0
    5.9422   -3.2036    0.0000 C   0  0  0  0  0  0  0  0  0  0  0  0
    4.6844   -4.4658    0.0000 C   0  0  0  0  0  0  0  0  0  0  0  0
    3.7320   -0.6410    0.0000 C   0  0  0  0  0  0  0  0  0  0  0  0
    3.7320    0.3590    0.0000 C   0  0  0  0  0  0  0  0  0  0  0  0
    4.6783    0.6638    0.0000 C   0  0  0  0  0  0  0  0  0  0  0  0
    2.8660    0.8590    0.0000 C   0  0  0  0  0  0  0  0  0  0  0  0
    4.9889    1.6143    0.0000 C   0  0  0  0  0  0  0  0  0  0  0  0
    2.0000   -0.6410    0.0000 C   0  0  0  0  0  0  0  0  0  0  0  0
    5.9674    1.8205    0.0000 C   0  0  0  0  0  0  0  0  0  0  0  0
    4.3211    2.3586    0.0000 C   0  0  0  0  0  0  0  0  0  0  0  0
    6.2781    2.7710    0.0000 C   0  0  0  0  0  0  0  0  0  0  0  0
    4.6318    3.3091    0.0000 C   0  0  0  0  0  0  0  0  0  0  0  0
    5.6103    3.5153    0.0000 C   0  0  0  0  0  0  0  0  0  0  0  0
    5.4266   -1.4571    0.0000 H   0  0  0  0  0  0  0  0  0  0  0  0
    5.4309   -3.9519    0.0000 H   0  0  0  0  0  0  0  0  0  0  0  0
    3.9411   -2.2922    0.0000 H   0  0  0  0  0  0  0  0  0  0  0  0
    3.9425   -3.1219    0.0000 H   0  0  0  0  0  0  0  0  0  0  0  0
    6.5572   -2.2673    0.0000 H   0  0  0  0  0  0  0  0  0  0  0  0
    6.0684   -1.5969    0.0000 H   0  0  0  0  0  0  0  0  0  0  0  0
    6.0722   -3.8098    0.0000 H   0  0  0  0  0  0  0  0  0  0  0  0
    6.5587   -3.1377    0.0000 H   0  0  0  0  0  0  0  0  0  0  0  0
    4.0944   -4.2753    0.0000 H   0  0  0  0  0  0  0  0  0  0  0  0
    4.4938   -5.0558    0.0000 H   0  0  0  0  0  0  0  0  0  0  0  0
    5.2744   -4.6564    0.0000 H   0  0  0  0  0  0  0  0  0  0  0  0
    1.4631   -0.9510    0.0000 H   0  0  0  0  0  0  0  0  0  0  0  0
    6.3815    1.3590    0.0000 H   0  0  0  0  0  0  0  0  0  0  0  0
    3.7144    2.2307    0.0000 H   0  0  0  0  0  0  0  0  0  0  0  0
    2.3291    2.1690    0.0000 H   0  0  0  0  0  0  0  0  0  0  0  0
    3.4030    2.1690    0.0000 H   0  0  0  0  0  0  0  0  0  0  0  0
    4.2177    3.7706    0.0000 H   0  0  0  0  0  0  0  0  0  0  0  0
    7.6707    2.5158    0.0000 H   0  0  0  0  0  0  0  0  0  0  0  0
  1 24  1  0  0  0  0
  2 22  1  0  0  0  0
  2 42  1  0  0  0  0
  3  4  1  0  0  0  0
  3  8  1  0  0  0  0
  3 14  1  0  0  0  0
  4 16  2  0  0  0  0
  5 14  2  0  0  0  0
  5 19  1  0  0  0  0
  6 17  1  0  0  0  0
  6 19  2  0  0  0  0
  7 17  1  0  0  0  0
  7 39  1  0  0  0  0
  7 40  1  0  0  0  0
  8 10  1  0  0  0  0
  8 11  1  0  0  0  0
  8 25  1  0  0  0  0
  9 10  1  0  0  0  0
  9 12  1  0  0  0  0
  9 13  1  0  0  0  0
  9 26  1  0  0  0  0
 10 27  1  0  0  0  0
 10 28  1  0  0  0  0
 11 12  1  0  0  0  0
 11 29  1  0  0  0  0
 11 30  1  0  0  0  0
 12 31  1  0  0  0  0
 12 32  1  0  0  0  0
 13 33  1  0  0  0  0
 13 34  1  0  0  0  0
 13 35  1  0  0  0  0
 14 15  1  0  0  0  0
 15 16  1  0  0  0  0
 15 17  2  0  0  0  0
 16 18  1  0  0  0  0
 18 20  2  0  0  0  0
 18 21  1  0  0  0  0
 19 36  1  0  0  0  0
 20 22  1  0  0  0  0
 20 37  1  0  0  0  0
 21 23  2  0  0  0  0
 21 38  1  0  0  0  0
 22 24  2  0  0  0  0
 23 24  1  0  0  0  0
 23 41  1  0  0  0  0
M  END
> <PUBCHEM_COMPOUND_CID>
24905315

> <PUBCHEM_COMPOUND_CANONICALIZED>
1

> <PUBCHEM_CACTVS_COMPLEXITY>
455

> <PUBCHEM_CACTVS_HBOND_ACCEPTOR>
6

> <PUBCHEM_CACTVS_HBOND_DONOR>
2

> <PUBCHEM_CACTVS_ROTATABLE_BOND>
2

> <PUBCHEM_CACTVS_SUBSKEYS>
AAADceB7oQAAAAAAAAAAAAAAAAAAAeIAAAA8QAAAAAAAAFgB/AAAHwAYCAAADSzBnww3tt5IEgCiAyZjZACShCsxoKAd2CAuTJiILqLC2dOE9AhsyBPI2CewwPAOAAABAAAAAAAAAAIAAAAAACAAAAAAAA==

> <PUBCHEM_IUPAC_OPENEYE_NAME>
5-[4-amino-1-(3-methylcyclopentyl)pyrazolo[3,4-d]pyrimidin-3-yl]-2-fluoro-phenol

> <PUBCHEM_IUPAC_CAS_NAME>
5-[4-amino-1-(3-methylcyclopentyl)-3-pyrazolo[3,4-d]pyrimidinyl]-2-fluorophenol

> <PUBCHEM_IUPAC_NAME_MARKUP>
5-[4-amino-1-(3-methylcyclopentyl)pyrazolo[3,4-d]pyrimidin-3-yl]-2-fluorophenol

> <PUBCHEM_IUPAC_NAME>
5-[4-amino-1-(3-methylcyclopentyl)pyrazolo[3,4-d]pyrimidin-3-yl]-2-fluorophenol

> <PUBCHEM_IUPAC_SYSTEMATIC_NAME>
5-[4-azanyl-1-(3-methylcyclopentyl)pyrazolo[3,4-d]pyrimidin-3-yl]-2-fluoranyl-phenol

> <PUBCHEM_IUPAC_TRADITIONAL_NAME>
5-[4-amino-1-(3-methylcyclopentyl)pyrazolo[3,4-d]pyrimidin-3-yl]-2-fluoro-phenol

> <PUBCHEM_IUPAC_INCHI>
InChI=1S/C17H18FN5O/c1-9-2-4-11(6-9)23-17-14(16(19)20-8-21-17)15(22-23)10-3-5-12(18)13(24)7-10/h3,5,7-9,11,24H,2,4,6H2,1H3,(H2,19,20,21)

> <PUBCHEM_IUPAC_INCHIKEY>
MBPKPSDAPFPECJ-UHFFFAOYSA-N

> <PUBCHEM_XLOGP3_AA>
2.9

> <PUBCHEM_EXACT_MASS>
327.14953838

> <PUBCHEM_MOLECULAR_FORMULA>
C17H18FN5O

> <PUBCHEM_MOLECULAR_WEIGHT>
327.36

> <PUBCHEM_SMILES>
CC1CCC(C1)N2C3=NC=NC(=C3C(=N2)C4=CC(=C(C=C4)F)O)N

> <PUBCHEM_OPENEYE_CAN_SMILES>
CC1CCC(C1)N2C3=NC=NC(=C3C(=N2)C4=CC(=C(C=C4)F)O)N

> <PUBCHEM_OPENEYE_ISO_SMILES>
CC1CCC(C1)N2C3=NC=NC(=C3C(=N2)C4=CC(=C(C=C4)F)O)N

> <PUBCHEM_CACTVS_TPSA>
89.9

> <PUBCHEM_MONOISOTOPIC_WEIGHT>
327.14953838

> <PUBCHEM_TOTAL_CHARGE>
0

> <PUBCHEM_HEAVY_ATOM_COUNT>
24

> <PUBCHEM_ATOM_DEF_STEREO_COUNT>
0

> <PUBCHEM_ATOM_UDEF_STEREO_COUNT>
2

> <PUBCHEM_BOND_DEF_STEREO_COUNT>
0

> <PUBCHEM_BOND_UDEF_STEREO_COUNT>
0

> <PUBCHEM_ISOTOPIC_ATOM_COUNT>
0

> <PUBCHEM_COMPONENT_COUNT>
1

> <PUBCHEM_CACTVS_TAUTO_COUNT>
-1

> <PUBCHEM_COORDINATE_TYPE>
1
5
255

> <PUBCHEM_BONDANNOTATIONS>
14  15  8
15  16  8
15  17  8
18  20  8
18  21  8
20  22  8
21  23  8
22  24  8
23  24  8
3  14  8
3  4  8
8  3  3
4  16  8
5  14  8
5  19  8
6  17  8
6  19  8
9  13  3

$$$$
