71553011
  -OEChem-03202504552D

 66 69  0     0  0  0  0  0  0999 V2000
    6.3301    2.6488    0.0000 O   0  0  0  0  0  0  0  0  0  0  0  0
    9.7942   -3.3512    0.0000 O   0  0  0  0  0  0  0  0  0  0  0  0
    2.8660    2.6488    0.0000 N   0  0  0  0  0  0  0  0  0  0  0  0
    8.0622    2.6488    0.0000 N   0  0  0  0  0  0  0  0  0  0  0  0
    5.4641    1.1488    0.0000 N   0  0  0  0  0  0  0  0  0  0  0  0
    8.9282    1.1488    0.0000 N   0  0  0  0  0  0  0  0  0  0  0  0
    8.0622   -0.3512    0.0000 N   0  0  0  0  0  0  0  0  0  0  0  0
    9.7942   -0.3512    0.0000 N   0  0  0  0  0  0  0  0  0  0  0  0
    8.9282    3.1488    0.0000 C   0  0  0  0  0  0  0  0  0  0  0  0
    9.8418    2.7420    0.0000 C   0  0  0  0  0  0  0  0  0  0  0  0
    9.0327    4.1433    0.0000 C   0  0  0  0  0  0  0  0  0  0  0  0
   10.5109    3.4852    0.0000 C   0  0  0  0  0  0  0  0  0  0  0  0
   10.0109    4.3512    0.0000 C   0  0  0  0  0  0  0  0  0  0  0  0
    4.5981    1.6488    0.0000 C   0  0  0  0  0  0  0  0  0  0  0  0
    3.7320    1.1488    0.0000 C   0  0  0  0  0  0  0  0  0  0  0  0
    4.5981    2.6488    0.0000 C   0  0  0  0  0  0  0  0  0  0  0  0
    2.8660    1.6488    0.0000 C   0  0  0  0  0  0  0  0  0  0  0  0
    3.7320    3.1488    0.0000 C   0  0  0  0  0  0  0  0  0  0  0  0
    8.0622    1.6488    0.0000 C   0  0  0  0  0  0  0  0  0  0  0  0
    2.0000    3.1488    0.0000 C   0  0  0  0  0  0  0  0  0  0  0  0
    7.1962    1.1488    0.0000 C   0  0  0  0  0  0  0  0  0  0  0  0
    6.3301    1.6488    0.0000 C   0  0  0  0  0  0  0  0  0  0  0  0
    7.1962    0.1488    0.0000 C   0  0  0  0  0  0  0  0  0  0  0  0
    8.9282    0.1488    0.0000 C   0  0  0  0  0  0  0  0  0  0  0  0
    9.7942   -1.3512    0.0000 C   0  0  0  0  0  0  0  0  0  0  0  0
   10.6603   -1.8512    0.0000 C   0  0  0  0  0  0  0  0  0  0  0  0
   10.6603   -2.8512    0.0000 C   0  0  0  0  0  0  0  0  0  0  0  0
   11.5263   -1.3512    0.0000 C   0  0  0  0  0  0  0  0  0  0  0  0
   11.5263   -3.3512    0.0000 C   0  0  0  0  0  0  0  0  0  0  0  0
   12.3923   -1.8512    0.0000 C   0  0  0  0  0  0  0  0  0  0  0  0
   12.3923   -2.8512    0.0000 C   0  0  0  0  0  0  0  0  0  0  0  0
    9.7942   -4.3512    0.0000 C   0  0  0  0  0  0  0  0  0  0  0  0
    8.9606    2.5296    0.0000 H   0  0  0  0  0  0  0  0  0  0  0  0
    9.5318    2.2051    0.0000 H   0  0  0  0  0  0  0  0  0  0  0  0
   10.3433    2.3776    0.0000 H   0  0  0  0  0  0  0  0  0  0  0  0
    8.9679    4.7599    0.0000 H   0  0  0  0  0  0  0  0  0  0  0  0
    8.4127    4.1433    0.0000 H   0  0  0  0  0  0  0  0  0  0  0  0
   10.9257    3.0244    0.0000 H   0  0  0  0  0  0  0  0  0  0  0  0
   11.0125    3.8496    0.0000 H   0  0  0  0  0  0  0  0  0  0  0  0
   10.5773    4.6034    0.0000 H   0  0  0  0  0  0  0  0  0  0  0  0
    9.8193    4.9409    0.0000 H   0  0  0  0  0  0  0  0  0  0  0  0
    4.5981    1.0288    0.0000 H   0  0  0  0  0  0  0  0  0  0  0  0
    3.3335    0.6738    0.0000 H   0  0  0  0  0  0  0  0  0  0  0  0
    4.1306    0.6738    0.0000 H   0  0  0  0  0  0  0  0  0  0  0  0
    5.2087    2.5411    0.0000 H   0  0  0  0  0  0  0  0  0  0  0  0
    4.8101    3.2314    0.0000 H   0  0  0  0  0  0  0  0  0  0  0  0
    2.2554    1.7564    0.0000 H   0  0  0  0  0  0  0  0  0  0  0  0
    2.6540    1.0662    0.0000 H   0  0  0  0  0  0  0  0  0  0  0  0
    4.1306    3.6237    0.0000 H   0  0  0  0  0  0  0  0  0  0  0  0
    3.3335    3.6237    0.0000 H   0  0  0  0  0  0  0  0  0  0  0  0
    7.5252    2.9588    0.0000 H   0  0  0  0  0  0  0  0  0  0  0  0
    5.4641    0.5288    0.0000 H   0  0  0  0  0  0  0  0  0  0  0  0
    2.3100    3.6857    0.0000 H   0  0  0  0  0  0  0  0  0  0  0  0
    1.4631    3.4588    0.0000 H   0  0  0  0  0  0  0  0  0  0  0  0
    1.6900    2.6118    0.0000 H   0  0  0  0  0  0  0  0  0  0  0  0
    6.6592   -0.1612    0.0000 H   0  0  0  0  0  0  0  0  0  0  0  0
   10.3312   -0.0412    0.0000 H   0  0  0  0  0  0  0  0  0  0  0  0
    9.1836   -1.2436    0.0000 H   0  0  0  0  0  0  0  0  0  0  0  0
    9.5822   -1.9338    0.0000 H   0  0  0  0  0  0  0  0  0  0  0  0
   11.5263   -0.7312    0.0000 H   0  0  0  0  0  0  0  0  0  0  0  0
   11.5263   -3.9712    0.0000 H   0  0  0  0  0  0  0  0  0  0  0  0
   12.9292   -1.5412    0.0000 H   0  0  0  0  0  0  0  0  0  0  0  0
   12.9292   -3.1612    0.0000 H   0  0  0  0  0  0  0  0  0  0  0  0
    9.1742   -4.3512    0.0000 H   0  0  0  0  0  0  0  0  0  0  0  0
    9.7942   -4.9712    0.0000 H   0  0  0  0  0  0  0  0  0  0  0  0
   10.4142   -4.3512    0.0000 H   0  0  0  0  0  0  0  0  0  0  0  0
  1 22  2  0  0  0  0
  2 27  1  0  0  0  0
  2 32  1  0  0  0  0
  3 17  1  0  0  0  0
  3 18  1  0  0  0  0
  3 20  1  0  0  0  0
  4  9  1  0  0  0  0
  4 19  1  0  0  0  0
  4 51  1  0  0  0  0
  5 14  1  0  0  0  0
  5 22  1  0  0  0  0
  5 52  1  0  0  0  0
  6 19  2  0  0  0  0
  6 24  1  0  0  0  0
  7 23  1  0  0  0  0
  7 24  2  0  0  0  0
  8 24  1  0  0  0  0
  8 25  1  0  0  0  0
  8 57  1  0  0  0  0
  9 10  1  0  0  0  0
  9 11  1  0  0  0  0
  9 33  1  0  0  0  0
 10 12  1  0  0  0  0
 10 34  1  0  0  0  0
 10 35  1  0  0  0  0
 11 13  1  0  0  0  0
 11 36  1  0  0  0  0
 11 37  1  0  0  0  0
 12 13  1  0  0  0  0
 12 38  1  0  0  0  0
 12 39  1  0  0  0  0
 13 40  1  0  0  0  0
 13 41  1  0  0  0  0
 14 15  1  0  0  0  0
 14 16  1  0  0  0  0
 14 42  1  0  0  0  0
 15 17  1  0  0  0  0
 15 43  1  0  0  0  0
 15 44  1  0  0  0  0
 16 18  1  0  0  0  0
 16 45  1  0  0  0  0
 16 46  1  0  0  0  0
 17 47  1  0  0  0  0
 17 48  1  0  0  0  0
 18 49  1  0  0  0  0
 18 50  1  0  0  0  0
 19 21  1  0  0  0  0
 20 53  1  0  0  0  0
 20 54  1  0  0  0  0
 20 55  1  0  0  0  0
 21 22  1  0  0  0  0
 21 23  2  0  0  0  0
 23 56  1  0  0  0  0
 25 26  1  0  0  0  0
 25 58  1  0  0  0  0
 25 59  1  0  0  0  0
 26 27  1  0  0  0  0
 26 28  2  0  0  0  0
 27 29  2  0  0  0  0
 28 30  1  0  0  0  0
 28 60  1  0  0  0  0
 29 31  1  0  0  0  0
 29 61  1  0  0  0  0
 30 31  2  0  0  0  0
 30 62  1  0  0  0  0
 31 63  1  0  0  0  0
 32 64  1  0  0  0  0
 32 65  1  0  0  0  0
 32 66  1  0  0  0  0
M  END
> <PUBCHEM_COMPOUND_CID>
71553011

> <PUBCHEM_COMPOUND_CANONICALIZED>
1

> <PUBCHEM_CACTVS_COMPLEXITY>
579

> <PUBCHEM_CACTVS_HBOND_ACCEPTOR>
7

> <PUBCHEM_CACTVS_HBOND_DONOR>
3

> <PUBCHEM_CACTVS_ROTATABLE_BOND>
8

> <PUBCHEM_CACTVS_SUBSKEYS>
AAADcfB7sAAAAAAAAAAAAAAAAAAAAYAAAAA8WIAAAAAAAAABwAAAHgAQAAAADCzBmgY/tpfIFACoAjN3dACCiCk1IKAJ2KEuTNiMLqrE+VuENKhu1hPIqOeQwCAOAAAAAAAIAAAAAAAAABAAAAAAAAAAAA==

> <PUBCHEM_IUPAC_OPENEYE_NAME>
4-(cyclopentylamino)-2-[(2-methoxyphenyl)methylamino]-N-(1-methyl-4-piperidyl)pyrimidine-5-carboxamide

> <PUBCHEM_IUPAC_CAS_NAME>
4-(cyclopentylamino)-2-[(2-methoxyphenyl)methylamino]-N-(1-methyl-4-piperidinyl)-5-pyrimidinecarboxamide

> <PUBCHEM_IUPAC_NAME_MARKUP>
4-(cyclopentylamino)-2-[(2-methoxyphenyl)methylamino]-<I>N</I>-(1-methylpiperidin-4-yl)pyrimidine-5-carboxamide

> <PUBCHEM_IUPAC_NAME>
4-(cyclopentylamino)-2-[(2-methoxyphenyl)methylamino]-N-(1-methylpiperidin-4-yl)pyrimidine-5-carboxamide

> <PUBCHEM_IUPAC_SYSTEMATIC_NAME>
4-(cyclopentylamino)-2-[(2-methoxyphenyl)methylamino]-N-(1-methylpiperidin-4-yl)pyrimidine-5-carboxamide

> <PUBCHEM_IUPAC_TRADITIONAL_NAME>
4-(cyclopentylamino)-N-(1-methyl-4-piperidyl)-2-(o-anisylamino)pyrimidine-5-carboxamide

> <PUBCHEM_IUPAC_INCHI>
InChI=1S/C24H34N6O2/c1-30-13-11-19(12-14-30)28-23(31)20-16-26-24(29-22(20)27-18-8-4-5-9-18)25-15-17-7-3-6-10-21(17)32-2/h3,6-7,10,16,18-19H,4-5,8-9,11-15H2,1-2H3,(H,28,31)(H2,25,26,27,29)

> <PUBCHEM_IUPAC_INCHIKEY>
IHJZXCJKSRQJCM-UHFFFAOYSA-N

> <PUBCHEM_XLOGP3_AA>
4

> <PUBCHEM_EXACT_MASS>
438.27432435

> <PUBCHEM_MOLECULAR_FORMULA>
C24H34N6O2

> <PUBCHEM_MOLECULAR_WEIGHT>
438.6

> <PUBCHEM_SMILES>
CN1CCC(CC1)NC(=O)C2=CN=C(N=C2NC3CCCC3)NCC4=CC=CC=C4OC

> <PUBCHEM_OPENEYE_CAN_SMILES>
CN1CCC(CC1)NC(=O)C2=CN=C(N=C2NC3CCCC3)NCC4=CC=CC=C4OC

> <PUBCHEM_OPENEYE_ISO_SMILES>
CN1CCC(CC1)NC(=O)C2=CN=C(N=C2NC3CCCC3)NCC4=CC=CC=C4OC

> <PUBCHEM_CACTVS_TPSA>
91.4

> <PUBCHEM_MONOISOTOPIC_WEIGHT>
438.27432435

> <PUBCHEM_TOTAL_CHARGE>
0

> <PUBCHEM_HEAVY_ATOM_COUNT>
32

> <PUBCHEM_ATOM_DEF_STEREO_COUNT>
0

> <PUBCHEM_ATOM_UDEF_STEREO_COUNT>
0

> <PUBCHEM_BOND_DEF_STEREO_COUNT>
0

> <PUBCHEM_BOND_UDEF_STEREO_COUNT>
0

> <PUBCHEM_ISOTOPIC_ATOM_COUNT>
0

> <PUBCHEM_COMPONENT_COUNT>
1

> <PUBCHEM_CACTVS_TAUTO_COUNT>
-1

> <PUBCHEM_COORDINATE_TYPE>
1
5
255

> <PUBCHEM_BONDANNOTATIONS>
19  21  8
21  23  8
26  27  8
26  28  8
27  29  8
28  30  8
29  31  8
30  31  8
6  19  8
6  24  8
7  23  8
7  24  8

$$$$
