49830615
  -OEChem-03202502322D

 57 60  0     0  0  0  0  0  0999 V2000
    7.1279   -2.6088    0.0000 F   0  0  0  0  0  0  0  0  0  0  0  0
   10.1279   -0.8767    0.0000 F   0  0  0  0  0  0  0  0  0  0  0  0
   10.3903    3.6044    0.0000 O   0  0  0  0  0  0  0  0  0  0  0  0
    3.7320   -2.8767    0.0000 O   0  0  0  0  0  0  0  0  0  0  0  0
    4.5981   -0.3767    0.0000 N   0  0  0  0  0  0  0  0  0  0  0  0
    8.1226    2.2415    0.0000 N   0  0  0  0  0  0  0  0  0  0  0  0
    5.5443   -1.6815    0.0000 N   0  0  0  0  0  0  0  0  0  0  0  0
    6.8335    1.0847    0.0000 N   0  0  0  0  0  0  0  0  0  0  0  0
    2.8660   -1.3767    0.0000 N   0  0  0  0  0  0  0  0  0  0  0  0
    6.4763    2.7796    0.0000 N   0  0  0  0  0  0  0  0  0  0  0  0
    9.4118    3.3982    0.0000 C   0  0  0  0  0  0  0  0  0  0  0  0
    8.4333    3.1920    0.0000 C   0  0  0  0  0  0  0  0  0  0  0  0
    5.5443   -0.0720    0.0000 C   0  0  0  0  0  0  0  0  0  0  0  0
    6.1279   -0.8767    0.0000 C   0  0  0  0  0  0  0  0  0  0  0  0
    4.5981   -1.3767    0.0000 C   0  0  0  0  0  0  0  0  0  0  0  0
    9.2056    4.3767    0.0000 C   0  0  0  0  0  0  0  0  0  0  0  0
    9.6180    2.4197    0.0000 C   0  0  0  0  0  0  0  0  0  0  0  0
    5.8550    0.8785    0.0000 C   0  0  0  0  0  0  0  0  0  0  0  0
    7.1279   -0.8767    0.0000 C   0  0  0  0  0  0  0  0  0  0  0  0
    3.7320   -1.8767    0.0000 C   0  0  0  0  0  0  0  0  0  0  0  0
    7.1441    2.0353    0.0000 C   0  0  0  0  0  0  0  0  0  0  0  0
    3.7320    0.1233    0.0000 C   0  0  0  0  0  0  0  0  0  0  0  0
    5.1871    1.6228    0.0000 C   0  0  0  0  0  0  0  0  0  0  0  0
    2.8660   -3.3767    0.0000 C   0  0  0  0  0  0  0  0  0  0  0  0
    2.8660   -0.3767    0.0000 C   0  0  0  0  0  0  0  0  0  0  0  0
    7.6279   -1.7428    0.0000 C   0  0  0  0  0  0  0  0  0  0  0  0
    7.6279   -0.0107    0.0000 C   0  0  0  0  0  0  0  0  0  0  0  0
    5.4978    2.5734    0.0000 C   0  0  0  0  0  0  0  0  0  0  0  0
    2.8660   -4.3767    0.0000 C   0  0  0  0  0  0  0  0  0  0  0  0
    2.0000   -2.8767    0.0000 C   0  0  0  0  0  0  0  0  0  0  0  0
    8.6279   -1.7428    0.0000 C   0  0  0  0  0  0  0  0  0  0  0  0
    8.6279   -0.0107    0.0000 C   0  0  0  0  0  0  0  0  0  0  0  0
    9.1279   -0.8767    0.0000 C   0  0  0  0  0  0  0  0  0  0  0  0
    8.4127    3.8117    0.0000 H   0  0  0  0  0  0  0  0  0  0  0  0
    7.8195    3.2794    0.0000 H   0  0  0  0  0  0  0  0  0  0  0  0
    9.8122    4.5046    0.0000 H   0  0  0  0  0  0  0  0  0  0  0  0
    9.0777    4.9834    0.0000 H   0  0  0  0  0  0  0  0  0  0  0  0
    8.5989    4.2489    0.0000 H   0  0  0  0  0  0  0  0  0  0  0  0
    9.0114    2.2919    0.0000 H   0  0  0  0  0  0  0  0  0  0  0  0
    9.7459    1.8130    0.0000 H   0  0  0  0  0  0  0  0  0  0  0  0
   10.2247    2.5476    0.0000 H   0  0  0  0  0  0  0  0  0  0  0  0
    8.5367    1.7800    0.0000 H   0  0  0  0  0  0  0  0  0  0  0  0
    3.7320    0.7433    0.0000 H   0  0  0  0  0  0  0  0  0  0  0  0
    4.5804    1.4950    0.0000 H   0  0  0  0  0  0  0  0  0  0  0  0
   10.5829    4.1938    0.0000 H   0  0  0  0  0  0  0  0  0  0  0  0
    2.8660   -2.7567    0.0000 H   0  0  0  0  0  0  0  0  0  0  0  0
    2.3291   -0.0667    0.0000 H   0  0  0  0  0  0  0  0  0  0  0  0
    7.3179    0.5262    0.0000 H   0  0  0  0  0  0  0  0  0  0  0  0
    5.0837    3.0348    0.0000 H   0  0  0  0  0  0  0  0  0  0  0  0
    2.2460   -4.3767    0.0000 H   0  0  0  0  0  0  0  0  0  0  0  0
    2.8660   -4.9967    0.0000 H   0  0  0  0  0  0  0  0  0  0  0  0
    3.4860   -4.3767    0.0000 H   0  0  0  0  0  0  0  0  0  0  0  0
    2.3100   -2.3398    0.0000 H   0  0  0  0  0  0  0  0  0  0  0  0
    1.4631   -2.5667    0.0000 H   0  0  0  0  0  0  0  0  0  0  0  0
    1.6900   -3.4137    0.0000 H   0  0  0  0  0  0  0  0  0  0  0  0
    8.9379   -2.2797    0.0000 H   0  0  0  0  0  0  0  0  0  0  0  0
    8.9379    0.5262    0.0000 H   0  0  0  0  0  0  0  0  0  0  0  0
  1 26  1  0  0  0  0
  2 33  1  0  0  0  0
  3 11  1  0  0  0  0
  3 45  1  0  0  0  0
  4 20  1  0  0  0  0
  4 24  1  0  0  0  0
  5 13  1  0  0  0  0
  5 15  1  0  0  0  0
  5 22  1  0  0  0  0
  6 12  1  0  0  0  0
  6 21  1  0  0  0  0
  6 42  1  0  0  0  0
  7 14  1  0  0  0  0
  7 15  2  0  0  0  0
  8 18  2  0  0  0  0
  8 21  1  0  0  0  0
  9 20  2  0  0  0  0
  9 25  1  0  0  0  0
 10 21  2  0  0  0  0
 10 28  1  0  0  0  0
 11 12  1  0  0  0  0
 11 16  1  0  0  0  0
 11 17  1  0  0  0  0
 12 34  1  0  0  0  0
 12 35  1  0  0  0  0
 13 14  2  0  0  0  0
 13 18  1  0  0  0  0
 14 19  1  0  0  0  0
 15 20  1  0  0  0  0
 16 36  1  0  0  0  0
 16 37  1  0  0  0  0
 16 38  1  0  0  0  0
 17 39  1  0  0  0  0
 17 40  1  0  0  0  0
 17 41  1  0  0  0  0
 18 23  1  0  0  0  0
 19 26  2  0  0  0  0
 19 27  1  0  0  0  0
 22 25  2  0  0  0  0
 22 43  1  0  0  0  0
 23 28  2  0  0  0  0
 23 44  1  0  0  0  0
 24 29  1  0  0  0  0
 24 30  1  0  0  0  0
 24 46  1  0  0  0  0
 25 47  1  0  0  0  0
 26 31  1  0  0  0  0
 27 32  2  0  0  0  0
 27 48  1  0  0  0  0
 28 49  1  0  0  0  0
 29 50  1  0  0  0  0
 29 51  1  0  0  0  0
 29 52  1  0  0  0  0
 30 53  1  0  0  0  0
 30 54  1  0  0  0  0
 30 55  1  0  0  0  0
 31 33  2  0  0  0  0
 31 56  1  0  0  0  0
 32 33  1  0  0  0  0
 32 57  1  0  0  0  0
M  END
> <PUBCHEM_COMPOUND_CID>
49830615

> <PUBCHEM_COMPOUND_CANONICALIZED>
1

> <PUBCHEM_CACTVS_COMPLEXITY>
644

> <PUBCHEM_CACTVS_HBOND_ACCEPTOR>
9

> <PUBCHEM_CACTVS_HBOND_DONOR>
2

> <PUBCHEM_CACTVS_ROTATABLE_BOND>
7

> <PUBCHEM_CACTVS_SUBSKEYS>
AAADceB7sYAAAAAAAAAAAAAAAAAAAWAAAAA8WIAAAAAAAFgB/AAAHwAQCAAADFzhnw4/tJ/MHgCgAzZnZASCiC0xUqAJ2KA5dJiOaOLA2dGfLAjogALYyCcQgMAOAAAAAAAAAAAAAAAAAAAAAAAAAAAAAA==

> <PUBCHEM_IUPAC_OPENEYE_NAME>
1-[[4-[2-(2,4-difluorophenyl)-8-isopropoxy-imidazo[1,2-a]pyrazin-3-yl]pyrimidin-2-yl]amino]-2-methyl-propan-2-ol

> <PUBCHEM_IUPAC_CAS_NAME>
1-[[4-[2-(2,4-difluorophenyl)-8-propan-2-yloxy-3-imidazo[1,2-a]pyrazinyl]-2-pyrimidinyl]amino]-2-methyl-2-propanol

> <PUBCHEM_IUPAC_NAME_MARKUP>
1-[[4-[2-(2,4-difluorophenyl)-8-propan-2-yloxyimidazo[1,2-a]pyrazin-3-yl]pyrimidin-2-yl]amino]-2-methylpropan-2-ol

> <PUBCHEM_IUPAC_NAME>
1-[[4-[2-(2,4-difluorophenyl)-8-propan-2-yloxyimidazo[1,2-a]pyrazin-3-yl]pyrimidin-2-yl]amino]-2-methylpropan-2-ol

> <PUBCHEM_IUPAC_SYSTEMATIC_NAME>
1-[[4-[2-[2,4-bis(fluoranyl)phenyl]-8-propan-2-yloxy-imidazo[1,2-a]pyrazin-3-yl]pyrimidin-2-yl]amino]-2-methyl-propan-2-ol

> <PUBCHEM_IUPAC_TRADITIONAL_NAME>
1-[[4-[2-(2,4-difluorophenyl)-8-isopropoxy-imidazo[1,2-a]pyrazin-3-yl]pyrimidin-2-yl]amino]-2-methyl-propan-2-ol

> <PUBCHEM_IUPAC_INCHI>
InChI=1S/C23H24F2N6O2/c1-13(2)33-21-20-30-18(15-6-5-14(24)11-16(15)25)19(31(20)10-9-26-21)17-7-8-27-22(29-17)28-12-23(3,4)32/h5-11,13,32H,12H2,1-4H3,(H,27,28,29)

> <PUBCHEM_IUPAC_INCHIKEY>
OTQSCDWPCPZRIU-UHFFFAOYSA-N

> <PUBCHEM_XLOGP3_AA>
3.9

> <PUBCHEM_EXACT_MASS>
454.19288035

> <PUBCHEM_MOLECULAR_FORMULA>
C23H24F2N6O2

> <PUBCHEM_MOLECULAR_WEIGHT>
454.5

> <PUBCHEM_SMILES>
CC(C)OC1=NC=CN2C1=NC(=C2C3=NC(=NC=C3)NCC(C)(C)O)C4=C(C=C(C=C4)F)F

> <PUBCHEM_OPENEYE_CAN_SMILES>
CC(C)OC1=NC=CN2C1=NC(=C2C3=NC(=NC=C3)NCC(C)(C)O)C4=C(C=C(C=C4)F)F

> <PUBCHEM_OPENEYE_ISO_SMILES>
CC(C)OC1=NC=CN2C1=NC(=C2C3=NC(=NC=C3)NCC(C)(C)O)C4=C(C=C(C=C4)F)F

> <PUBCHEM_CACTVS_TPSA>
97.5

> <PUBCHEM_MONOISOTOPIC_WEIGHT>
454.19288035

> <PUBCHEM_TOTAL_CHARGE>
0

> <PUBCHEM_HEAVY_ATOM_COUNT>
33

> <PUBCHEM_ATOM_DEF_STEREO_COUNT>
0

> <PUBCHEM_ATOM_UDEF_STEREO_COUNT>
0

> <PUBCHEM_BOND_DEF_STEREO_COUNT>
0

> <PUBCHEM_BOND_UDEF_STEREO_COUNT>
0

> <PUBCHEM_ISOTOPIC_ATOM_COUNT>
0

> <PUBCHEM_COMPONENT_COUNT>
1

> <PUBCHEM_CACTVS_TAUTO_COUNT>
-1

> <PUBCHEM_COORDINATE_TYPE>
1
5
255

> <PUBCHEM_BONDANNOTATIONS>
10  21  8
10  28  8
13  14  8
15  20  8
18  23  8
19  26  8
19  27  8
22  25  8
23  28  8
26  31  8
27  32  8
31  33  8
32  33  8
5  13  8
5  15  8
5  22  8
7  14  8
7  15  8
8  18  8
8  21  8
9  20  8
9  25  8

$$$$
