49830944
  -OEChem-03202504192D

 33 35  0     0  0  0  0  0  0999 V2000
    3.0109    2.1943    0.0000 O   0  0  0  0  0  0  0  0  0  0  0  0
    8.9840   -1.0612    0.0000 O   0  0  0  0  0  0  0  0  0  0  0  0
    7.6924   -2.2152    0.0000 O   0  0  0  0  0  0  0  0  0  0  0  0
    5.1333    1.5952    0.0000 N   0  0  0  0  0  0  0  0  0  0  0  0
    2.6060    0.4710    0.0000 N   0  0  0  0  0  0  0  0  0  0  0  0
    4.6333    0.0564    0.0000 C   0  0  0  0  0  0  0  0  0  0  0  0
    3.9483   -0.7284    0.0000 C   0  0  0  0  0  0  0  0  0  0  0  0
    5.6333    0.0564    0.0000 C   0  0  0  0  0  0  0  0  0  0  0  0
    4.3243    1.0074    0.0000 C   0  0  0  0  0  0  0  0  0  0  0  0
    5.9423    1.0074    0.0000 C   0  0  0  0  0  0  0  0  0  0  0  0
    2.9278   -0.5196    0.0000 C   0  0  0  0  0  0  0  0  0  0  0  0
    3.3089    1.2397    0.0000 C   0  0  0  0  0  0  0  0  0  0  0  0
    6.3183   -0.7284    0.0000 C   0  0  0  0  0  0  0  0  0  0  0  0
    6.9577    1.2397    0.0000 C   0  0  0  0  0  0  0  0  0  0  0  0
    7.3388   -0.5196    0.0000 C   0  0  0  0  0  0  0  0  0  0  0  0
    7.6607    0.4710    0.0000 C   0  0  0  0  0  0  0  0  0  0  0  0
    8.0050   -1.2654    0.0000 C   0  0  0  0  0  0  0  0  0  0  0  0
    9.6502   -1.8069    0.0000 C   0  0  0  0  0  0  0  0  0  0  0  0
   10.6292   -1.6028    0.0000 C   0  0  0  0  0  0  0  0  0  0  0  0
    3.7220   -1.3056    0.0000 H   0  0  0  0  0  0  0  0  0  0  0  0
    4.4783   -1.0501    0.0000 H   0  0  0  0  0  0  0  0  0  0  0  0
    2.3141   -0.6075    0.0000 H   0  0  0  0  0  0  0  0  0  0  0  0
    2.9094   -1.1394    0.0000 H   0  0  0  0  0  0  0  0  0  0  0  0
    5.1333    2.2152    0.0000 H   0  0  0  0  0  0  0  0  0  0  0  0
    2.0000    0.6022    0.0000 H   0  0  0  0  0  0  0  0  0  0  0  0
    6.1199   -1.3158    0.0000 H   0  0  0  0  0  0  0  0  0  0  0  0
    7.1425    1.8315    0.0000 H   0  0  0  0  0  0  0  0  0  0  0  0
    8.2666    0.6022    0.0000 H   0  0  0  0  0  0  0  0  0  0  0  0
    9.1232   -2.1335    0.0000 H   0  0  0  0  0  0  0  0  0  0  0  0
    9.8803   -2.3827    0.0000 H   0  0  0  0  0  0  0  0  0  0  0  0
   10.7558   -2.2098    0.0000 H   0  0  0  0  0  0  0  0  0  0  0  0
   11.2361   -1.4762    0.0000 H   0  0  0  0  0  0  0  0  0  0  0  0
   10.5026   -0.9959    0.0000 H   0  0  0  0  0  0  0  0  0  0  0  0
  1 12  2  0  0  0  0
  2 17  1  0  0  0  0
  2 18  1  0  0  0  0
  3 17  2  0  0  0  0
  4  9  1  0  0  0  0
  4 10  1  0  0  0  0
  4 24  1  0  0  0  0
  5 11  1  0  0  0  0
  5 12  1  0  0  0  0
  5 25  1  0  0  0  0
  6  7  1  0  0  0  0
  6  8  1  0  0  0  0
  6  9  2  0  0  0  0
  7 11  1  0  0  0  0
  7 20  1  0  0  0  0
  7 21  1  0  0  0  0
  8 10  2  0  0  0  0
  8 13  1  0  0  0  0
  9 12  1  0  0  0  0
 10 14  1  0  0  0  0
 11 22  1  0  0  0  0
 11 23  1  0  0  0  0
 13 15  2  0  0  0  0
 13 26  1  0  0  0  0
 14 16  2  0  0  0  0
 14 27  1  0  0  0  0
 15 16  1  0  0  0  0
 15 17  1  0  0  0  0
 16 28  1  0  0  0  0
 18 19  1  0  0  0  0
 18 29  1  0  0  0  0
 18 30  1  0  0  0  0
 19 31  1  0  0  0  0
 19 32  1  0  0  0  0
 19 33  1  0  0  0  0
M  END
> <PUBCHEM_COMPOUND_CID>
49830944

> <PUBCHEM_COMPOUND_CANONICALIZED>
1

> <PUBCHEM_CACTVS_COMPLEXITY>
385

> <PUBCHEM_CACTVS_HBOND_ACCEPTOR>
3

> <PUBCHEM_CACTVS_HBOND_DONOR>
2

> <PUBCHEM_CACTVS_ROTATABLE_BOND>
3

> <PUBCHEM_CACTVS_SUBSKEYS>
AAADccBzMAAAAAAAAAAAAAAAAAAAAWAAAAA8QAAAAAAAAFgB8AAAHgAQAAAADAjhngYyyPLJlACoAyXyXACCgCAnAiAImaG4bNgIZvLAtbmWMQhk1gHI6YeY2fOeiAACAAACAAAQAAQAAAQAAAAAAAAAAA==

> <PUBCHEM_IUPAC_OPENEYE_NAME>
ethyl 1-oxo-2,3,4,9-tetrahydropyrido[3,4-b]indole-6-carboxylate

> <PUBCHEM_IUPAC_CAS_NAME>
1-oxo-2,3,4,9-tetrahydropyrido[3,4-b]indole-6-carboxylic acid ethyl ester

> <PUBCHEM_IUPAC_NAME_MARKUP>
ethyl 1-oxo-2,3,4,9-tetrahydropyrido[3,4-b]indole-6-carboxylate

> <PUBCHEM_IUPAC_NAME>
ethyl 1-oxo-2,3,4,9-tetrahydropyrido[3,4-b]indole-6-carboxylate

> <PUBCHEM_IUPAC_SYSTEMATIC_NAME>
ethyl 1-oxidanylidene-2,3,4,9-tetrahydropyrido[3,4-b]indole-6-carboxylate

> <PUBCHEM_IUPAC_TRADITIONAL_NAME>
1-keto-2,3,4,9-tetrahydro-beta-carboline-6-carboxylic acid ethyl ester

> <PUBCHEM_IUPAC_INCHI>
InChI=1S/C14H14N2O3/c1-2-19-14(18)8-3-4-11-10(7-8)9-5-6-15-13(17)12(9)16-11/h3-4,7,16H,2,5-6H2,1H3,(H,15,17)

> <PUBCHEM_IUPAC_INCHIKEY>
BUMDIHXPDAJSFZ-UHFFFAOYSA-N

> <PUBCHEM_XLOGP3_AA>
1.9

> <PUBCHEM_EXACT_MASS>
258.10044231

> <PUBCHEM_MOLECULAR_FORMULA>
C14H14N2O3

> <PUBCHEM_MOLECULAR_WEIGHT>
258.27

> <PUBCHEM_SMILES>
CCOC(=O)C1=CC2=C(C=C1)NC3=C2CCNC3=O

> <PUBCHEM_OPENEYE_CAN_SMILES>
CCOC(=O)C1=CC2=C(C=C1)NC3=C2CCNC3=O

> <PUBCHEM_OPENEYE_ISO_SMILES>
CCOC(=O)C1=CC2=C(C=C1)NC3=C2CCNC3=O

> <PUBCHEM_CACTVS_TPSA>
71.2

> <PUBCHEM_MONOISOTOPIC_WEIGHT>
258.10044231

> <PUBCHEM_TOTAL_CHARGE>
0

> <PUBCHEM_HEAVY_ATOM_COUNT>
19

> <PUBCHEM_ATOM_DEF_STEREO_COUNT>
0

> <PUBCHEM_ATOM_UDEF_STEREO_COUNT>
0

> <PUBCHEM_BOND_DEF_STEREO_COUNT>
0

> <PUBCHEM_BOND_UDEF_STEREO_COUNT>
0

> <PUBCHEM_ISOTOPIC_ATOM_COUNT>
0

> <PUBCHEM_COMPONENT_COUNT>
1

> <PUBCHEM_CACTVS_TAUTO_COUNT>
-1

> <PUBCHEM_COORDINATE_TYPE>
1
5
255

> <PUBCHEM_BONDANNOTATIONS>
10  14  8
13  15  8
14  16  8
15  16  8
4  10  8
4  9  8
6  8  8
6  9  8
8  10  8
8  13  8

$$$$
