13187667
  -OEChem-03192523262D

 21 23  0     0  0  0  0  0  0999 V2000
    6.1391   -0.0008    0.0000 S   0  0  0  0  0  0  0  0  0  0  0  0
    4.8370   -0.9468    0.0000 N   0  0  0  0  0  0  0  0  0  0  0  0
    6.4189   -1.7550    0.0000 N   0  0  0  0  0  0  0  0  0  0  0  0
    5.0274    1.5366    0.0000 C   0  0  0  0  0  0  0  0  0  0  0  0
    4.0274    1.5366    0.0000 C   0  0  0  0  0  0  0  0  0  0  0  0
    3.7183    0.5856    0.0000 C   0  0  0  0  0  0  0  0  0  0  0  0
    5.3364    0.5856    0.0000 C   0  0  0  0  0  0  0  0  0  0  0  0
    4.5274   -0.0022    0.0000 C   0  0  0  0  0  0  0  0  0  0  0  0
    3.3424    2.3214    0.0000 C   0  0  0  0  0  0  0  0  0  0  0  0
    2.7029    0.3533    0.0000 C   0  0  0  0  0  0  0  0  0  0  0  0
    5.8311   -0.9460    0.0000 C   0  0  0  0  0  0  0  0  0  0  0  0
    2.3219    2.1127    0.0000 C   0  0  0  0  0  0  0  0  0  0  0  0
    2.0000    1.1220    0.0000 C   0  0  0  0  0  0  0  0  0  0  0  0
    5.6338    1.6656    0.0000 H   0  0  0  0  0  0  0  0  0  0  0  0
    4.9626    2.1532    0.0000 H   0  0  0  0  0  0  0  0  0  0  0  0
    3.5408    2.9088    0.0000 H   0  0  0  0  0  0  0  0  0  0  0  0
    2.5182   -0.2385    0.0000 H   0  0  0  0  0  0  0  0  0  0  0  0
    1.9088    2.5750    0.0000 H   0  0  0  0  0  0  0  0  0  0  0  0
    1.3940    0.9908    0.0000 H   0  0  0  0  0  0  0  0  0  0  0  0
    7.0355   -1.6902    0.0000 H   0  0  0  0  0  0  0  0  0  0  0  0
    6.1667   -2.3214    0.0000 H   0  0  0  0  0  0  0  0  0  0  0  0
  1  7  1  0  0  0  0
  1 11  1  0  0  0  0
  2  8  1  0  0  0  0
  2 11  2  0  0  0  0
  3 11  1  0  0  0  0
  3 20  1  0  0  0  0
  3 21  1  0  0  0  0
  4  5  1  0  0  0  0
  4  7  1  0  0  0  0
  4 14  1  0  0  0  0
  4 15  1  0  0  0  0
  5  6  1  0  0  0  0
  5  9  2  0  0  0  0
  6  8  1  0  0  0  0
  6 10  2  0  0  0  0
  7  8  2  0  0  0  0
  9 12  1  0  0  0  0
  9 16  1  0  0  0  0
 10 13  1  0  0  0  0
 10 17  1  0  0  0  0
 12 13  2  0  0  0  0
 12 18  1  0  0  0  0
 13 19  1  0  0  0  0
M  END
> <PUBCHEM_COMPOUND_CID>
13187667

> <PUBCHEM_COMPOUND_CANONICALIZED>
1

> <PUBCHEM_CACTVS_COMPLEXITY>
209

> <PUBCHEM_CACTVS_HBOND_ACCEPTOR>
3

> <PUBCHEM_CACTVS_HBOND_DONOR>
1

> <PUBCHEM_CACTVS_ROTATABLE_BOND>
0

> <PUBCHEM_CACTVS_SUBSKEYS>
AAADccBzAABAAAAAAAAAAAAAAAAAAeIAAAAwAAAAAAAWAGABwAAAHAQQAAAADAiBXgAxkZJIEAikAyRiZACC8KlhCDkImDQgRJiIIKLgkRGEIAhggAJIyCcQgIAOgAAAAAAQAAAAAAAAACAAAGAACQCAAA==

> <PUBCHEM_IUPAC_OPENEYE_NAME>
4H-indeno[1,2-d]thiazol-2-amine

> <PUBCHEM_IUPAC_CAS_NAME>
4H-indeno[1,2-d]thiazol-2-amine

> <PUBCHEM_IUPAC_NAME_MARKUP>
4<I>H</I>-indeno[1,2-d][1,3]thiazol-2-amine

> <PUBCHEM_IUPAC_NAME>
4H-indeno[1,2-d][1,3]thiazol-2-amine

> <PUBCHEM_IUPAC_SYSTEMATIC_NAME>
4H-indeno[1,2-d][1,3]thiazol-2-amine

> <PUBCHEM_IUPAC_TRADITIONAL_NAME>
4H-indeno[1,2-d]thiazol-2-ylamine

> <PUBCHEM_IUPAC_INCHI>
InChI=1S/C10H8N2S/c11-10-12-9-7-4-2-1-3-6(7)5-8(9)13-10/h1-4H,5H2,(H2,11,12)

> <PUBCHEM_IUPAC_INCHIKEY>
XXHWFLFMSNXBLK-UHFFFAOYSA-N

> <PUBCHEM_XLOGP3_AA>
2.3

> <PUBCHEM_EXACT_MASS>
188.04081944

> <PUBCHEM_MOLECULAR_FORMULA>
C10H8N2S

> <PUBCHEM_MOLECULAR_WEIGHT>
188.25

> <PUBCHEM_SMILES>
C1C2=CC=CC=C2C3=C1SC(=N3)N

> <PUBCHEM_OPENEYE_CAN_SMILES>
C1C2=CC=CC=C2C3=C1SC(=N3)N

> <PUBCHEM_OPENEYE_ISO_SMILES>
C1C2=CC=CC=C2C3=C1SC(=N3)N

> <PUBCHEM_CACTVS_TPSA>
67.2

> <PUBCHEM_MONOISOTOPIC_WEIGHT>
188.04081944

> <PUBCHEM_TOTAL_CHARGE>
0

> <PUBCHEM_HEAVY_ATOM_COUNT>
13

> <PUBCHEM_ATOM_DEF_STEREO_COUNT>
0

> <PUBCHEM_ATOM_UDEF_STEREO_COUNT>
0

> <PUBCHEM_BOND_DEF_STEREO_COUNT>
0

> <PUBCHEM_BOND_UDEF_STEREO_COUNT>
0

> <PUBCHEM_ISOTOPIC_ATOM_COUNT>
0

> <PUBCHEM_COMPONENT_COUNT>
1

> <PUBCHEM_CACTVS_TAUTO_COUNT>
-1

> <PUBCHEM_COORDINATE_TYPE>
1
5
255

> <PUBCHEM_BONDANNOTATIONS>
1  11  8
1  7  8
10  13  8
12  13  8
2  11  8
2  8  8
5  6  8
5  9  8
6  10  8
7  8  8
9  12  8

$$$$
