1924413
  -OEChem-03202501522D

 15 16  0     0  0  0  0  0  0999 V2000
    2.0000    1.0000    0.0000 Br  0  0  0  0  0  0  0  0  0  0  0  0
    7.1279   -0.0000    0.0000 O   0  0  0  0  0  0  0  0  0  0  0  0
    5.5443    0.8047    0.0000 N   0  0  0  0  0  0  0  0  0  0  0  0
    5.5443   -0.8047    0.0000 N   0  0  0  0  0  0  0  0  0  0  0  0
    3.7320   -1.0000    0.0000 N   0  0  0  0  0  0  0  0  0  0  0  0
    4.5981    0.5000    0.0000 C   0  0  0  0  0  0  0  0  0  0  0  0
    4.5981   -0.5000    0.0000 C   0  0  0  0  0  0  0  0  0  0  0  0
    6.1279    0.0000    0.0000 C   0  0  0  0  0  0  0  0  0  0  0  0
    3.7320    1.0000    0.0000 C   0  0  0  0  0  0  0  0  0  0  0  0
    2.8660    0.5000    0.0000 C   0  0  0  0  0  0  0  0  0  0  0  0
    2.8660   -0.5000    0.0000 C   0  0  0  0  0  0  0  0  0  0  0  0
    5.7369    1.3940    0.0000 H   0  0  0  0  0  0  0  0  0  0  0  0
    5.7369   -1.3940    0.0000 H   0  0  0  0  0  0  0  0  0  0  0  0
    3.7320    1.6200    0.0000 H   0  0  0  0  0  0  0  0  0  0  0  0
    2.3291   -0.8100    0.0000 H   0  0  0  0  0  0  0  0  0  0  0  0
  1 10  1  0  0  0  0
  2  8  2  0  0  0  0
  3  6  1  0  0  0  0
  3  8  1  0  0  0  0
  3 12  1  0  0  0  0
  4  7  1  0  0  0  0
  4  8  1  0  0  0  0
  4 13  1  0  0  0  0
  5  7  1  0  0  0  0
  5 11  2  0  0  0  0
  6  7  2  0  0  0  0
  6  9  1  0  0  0  0
  9 10  2  0  0  0  0
  9 14  1  0  0  0  0
 10 11  1  0  0  0  0
 11 15  1  0  0  0  0
M  END
> <PUBCHEM_COMPOUND_CID>
1924413

> <PUBCHEM_COMPOUND_CANONICALIZED>
1

> <PUBCHEM_CACTVS_COMPLEXITY>
187

> <PUBCHEM_CACTVS_HBOND_ACCEPTOR>
2

> <PUBCHEM_CACTVS_HBOND_DONOR>
2

> <PUBCHEM_CACTVS_ROTATABLE_BOND>
0

> <PUBCHEM_CACTVS_SUBSKEYS>
AAADcYBjIAAAEAAAAAAAAAAAAAAAAWAAAAAsAAAAAAAAAFgBgAAAHgBQAAABqAjBEgQ98JLIEACoADZndACCgCkxEiQB2CAodLiIYOLAkZGUIAholQLIyjYQAAAAAAAAAAAAAAAAAAAAAAAAAAAAAAAAAA==

> <PUBCHEM_IUPAC_OPENEYE_NAME>
6-bromo-1,3-dihydroimidazo[4,5-b]pyridin-2-one

> <PUBCHEM_IUPAC_CAS_NAME>
6-bromo-1,3-dihydroimidazo[4,5-b]pyridin-2-one

> <PUBCHEM_IUPAC_NAME_MARKUP>
6-bromo-1,3-dihydroimidazo[4,5-b]pyridin-2-one

> <PUBCHEM_IUPAC_NAME>
6-bromo-1,3-dihydroimidazo[4,5-b]pyridin-2-one

> <PUBCHEM_IUPAC_SYSTEMATIC_NAME>
6-bromanyl-1,3-dihydroimidazo[4,5-b]pyridin-2-one

> <PUBCHEM_IUPAC_TRADITIONAL_NAME>
6-bromo-1,3-dihydroimidazo[4,5-b]pyridin-2-one

> <PUBCHEM_IUPAC_INCHI>
InChI=1S/C6H4BrN3O/c7-3-1-4-5(8-2-3)10-6(11)9-4/h1-2H,(H2,8,9,10,11)

> <PUBCHEM_IUPAC_INCHIKEY>
VHCRLTJPUNUZRN-UHFFFAOYSA-N

> <PUBCHEM_XLOGP3_AA>
0.5

> <PUBCHEM_EXACT_MASS>
212.95377

> <PUBCHEM_MOLECULAR_FORMULA>
C6H4BrN3O

> <PUBCHEM_MOLECULAR_WEIGHT>
214.02

> <PUBCHEM_SMILES>
C1=C(C=NC2=C1NC(=O)N2)Br

> <PUBCHEM_OPENEYE_CAN_SMILES>
C1=C(C=NC2=C1NC(=O)N2)Br

> <PUBCHEM_OPENEYE_ISO_SMILES>
C1=C(C=NC2=C1NC(=O)N2)Br

> <PUBCHEM_CACTVS_TPSA>
54

> <PUBCHEM_MONOISOTOPIC_WEIGHT>
212.95377

> <PUBCHEM_TOTAL_CHARGE>
0

> <PUBCHEM_HEAVY_ATOM_COUNT>
11

> <PUBCHEM_ATOM_DEF_STEREO_COUNT>
0

> <PUBCHEM_ATOM_UDEF_STEREO_COUNT>
0

> <PUBCHEM_BOND_DEF_STEREO_COUNT>
0

> <PUBCHEM_BOND_UDEF_STEREO_COUNT>
0

> <PUBCHEM_ISOTOPIC_ATOM_COUNT>
0

> <PUBCHEM_COMPONENT_COUNT>
1

> <PUBCHEM_CACTVS_TAUTO_COUNT>
-1

> <PUBCHEM_COORDINATE_TYPE>
1
5
255

> <PUBCHEM_BONDANNOTATIONS>
10  11  8
3  6  8
3  8  8
4  7  8
4  8  8
5  11  8
5  7  8
6  7  8
6  9  8
9  10  8

$$$$
