44355564
  -OEChem-03202505342D

 64 70  0     1  0  0  0  0  0999 V2000
    4.6156   -0.0480    0.0000 O   0  0  0  0  0  0  0  0  0  0  0  0
    4.3882   -2.6256    0.0000 O   0  0  0  0  0  0  0  0  0  0  0  0
    2.5022   -1.5411    0.0000 O   0  0  0  0  0  0  0  0  0  0  0  0
    9.7284   -1.7552    0.0000 O   0  0  0  0  0  0  0  0  0  0  0  0
    9.7284    1.7552    0.0000 O   0  0  0  0  0  0  0  0  0  0  0  0
    6.1614   -4.7683    0.0000 O   0  0  0  0  0  0  0  0  0  0  0  0
    6.1614    4.7683    0.0000 O   0  0  0  0  0  0  0  0  0  0  0  0
   13.0013    1.7320    0.0000 O   0  0  0  0  0  0  0  0  0  0  0  0
   11.5013    2.5981    0.0000 O   0  0  0  0  0  0  0  0  0  0  0  0
    6.0024   -1.1671    0.0000 N   0  0  0  0  0  0  0  0  0  0  0  0
    6.0024    1.1671    0.0000 N   0  0  0  0  0  0  0  0  0  0  0  0
   10.0013    0.0000    0.0000 N   0  0  0  0  0  0  0  0  0  0  0  0
   11.0013    0.0000    0.0000 N   0  0  0  0  0  0  0  0  0  0  0  0
    5.0239   -0.9609    0.0000 C   0  0  1  0  0  0  0  0  0  0  0  0
    6.7395   -0.5000    0.0000 C   0  0  0  0  0  0  0  0  0  0  0  0
    7.6055   -1.0000    0.0000 C   0  0  0  0  0  0  0  0  0  0  0  0
    4.2820   -1.6313    0.0000 C   0  0  1  0  0  0  0  0  0  0  0  0
    6.7395    0.5000    0.0000 C   0  0  0  0  0  0  0  0  0  0  0  0
    6.4076   -2.0749    0.0000 C   0  0  0  0  0  0  0  0  0  0  0  0
    7.3963   -1.9718    0.0000 C   0  0  0  0  0  0  0  0  0  0  0  0
    3.4151   -1.1328    0.0000 C   0  0  1  0  0  0  0  0  0  0  0  0
    8.4715   -0.5000    0.0000 C   0  0  0  0  0  0  0  0  0  0  0  0
    7.6055    1.0000    0.0000 C   0  0  0  0  0  0  0  0  0  0  0  0
    8.4715    0.5000    0.0000 C   0  0  0  0  0  0  0  0  0  0  0  0
    3.6213   -0.1543    0.0000 C   0  0  0  0  0  0  0  0  0  0  0  0
    7.3963    1.9718    0.0000 C   0  0  0  0  0  0  0  0  0  0  0  0
    6.4076    2.0749    0.0000 C   0  0  0  0  0  0  0  0  0  0  0  0
    9.4177   -0.8047    0.0000 C   0  0  0  0  0  0  0  0  0  0  0  0
    9.4177    0.8047    0.0000 C   0  0  0  0  0  0  0  0  0  0  0  0
    5.9710   -3.0138    0.0000 C   0  0  0  0  0  0  0  0  0  0  0  0
    8.0170   -2.8006    0.0000 C   0  0  0  0  0  0  0  0  0  0  0  0
    6.5725   -3.8567    0.0000 C   0  0  0  0  0  0  0  0  0  0  0  0
    8.0170    2.8006    0.0000 C   0  0  0  0  0  0  0  0  0  0  0  0
    7.6024   -3.7494    0.0000 C   0  0  0  0  0  0  0  0  0  0  0  0
    5.9710    3.0138    0.0000 C   0  0  0  0  0  0  0  0  0  0  0  0
   11.5013    0.8660    0.0000 C   0  0  0  0  0  0  0  0  0  0  0  0
    7.6024    3.7494    0.0000 C   0  0  0  0  0  0  0  0  0  0  0  0
    6.5725    3.8567    0.0000 C   0  0  0  0  0  0  0  0  0  0  0  0
   12.5013    0.8660    0.0000 C   0  0  0  0  0  0  0  0  0  0  0  0
   11.0013    1.7320    0.0000 C   0  0  0  0  0  0  0  0  0  0  0  0
    5.4133   -0.4784    0.0000 H   0  0  0  0  0  0  0  0  0  0  0  0
    3.7626   -1.9699    0.0000 H   0  0  0  0  0  0  0  0  0  0  0  0
    2.9326   -0.7434    0.0000 H   0  0  0  0  0  0  0  0  0  0  0  0
    3.6202    0.4657    0.0000 H   0  0  0  0  0  0  0  0  0  0  0  0
    3.0046   -0.0905    0.0000 H   0  0  0  0  0  0  0  0  0  0  0  0
    5.3958    1.0392    0.0000 H   0  0  0  0  0  0  0  0  0  0  0  0
    5.3537   -3.0710    0.0000 H   0  0  0  0  0  0  0  0  0  0  0  0
    8.6329   -2.7292    0.0000 H   0  0  0  0  0  0  0  0  0  0  0  0
    3.8872   -2.9909    0.0000 H   0  0  0  0  0  0  0  0  0  0  0  0
    8.6329    2.7292    0.0000 H   0  0  0  0  0  0  0  0  0  0  0  0
    7.9683   -4.2499    0.0000 H   0  0  0  0  0  0  0  0  0  0  0  0
    2.0000   -1.1775    0.0000 H   0  0  0  0  0  0  0  0  0  0  0  0
    5.3537    3.0710    0.0000 H   0  0  0  0  0  0  0  0  0  0  0  0
   11.3113   -0.5369    0.0000 H   0  0  0  0  0  0  0  0  0  0  0  0
   11.8113    0.3291    0.0000 H   0  0  0  0  0  0  0  0  0  0  0  0
    7.9683    4.2499    0.0000 H   0  0  0  0  0  0  0  0  0  0  0  0
   12.3937    0.2554    0.0000 H   0  0  0  0  0  0  0  0  0  0  0  0
   13.0839    0.6540    0.0000 H   0  0  0  0  0  0  0  0  0  0  0  0
   10.5264    2.1306    0.0000 H   0  0  0  0  0  0  0  0  0  0  0  0
   10.5264    1.3335    0.0000 H   0  0  0  0  0  0  0  0  0  0  0  0
    6.5235   -5.2716    0.0000 H   0  0  0  0  0  0  0  0  0  0  0  0
    6.5235    5.2716    0.0000 H   0  0  0  0  0  0  0  0  0  0  0  0
   13.6213    1.7320    0.0000 H   0  0  0  0  0  0  0  0  0  0  0  0
   11.1913    3.1350    0.0000 H   0  0  0  0  0  0  0  0  0  0  0  0
  1 14  1  0  0  0  0
  1 25  1  0  0  0  0
 17  2  1  6  0  0  0
  2 49  1  0  0  0  0
 21  3  1  6  0  0  0
  3 52  1  0  0  0  0
  4 28  2  0  0  0  0
  5 29  2  0  0  0  0
  6 32  1  0  0  0  0
  6 61  1  0  0  0  0
  7 38  1  0  0  0  0
  7 62  1  0  0  0  0
  8 39  1  0  0  0  0
  8 63  1  0  0  0  0
  9 40  1  0  0  0  0
  9 64  1  0  0  0  0
 14 10  1  1  0  0  0
 10 15  1  0  0  0  0
 10 19  1  0  0  0  0
 11 18  1  0  0  0  0
 11 27  1  0  0  0  0
 11 46  1  0  0  0  0
 12 13  1  0  0  0  0
 12 28  1  0  0  0  0
 12 29  1  0  0  0  0
 13 36  1  0  0  0  0
 13 54  1  0  0  0  0
 14 17  1  0  0  0  0
 14 41  1  0  0  0  0
 15 16  1  0  0  0  0
 15 18  2  0  0  0  0
 16 20  1  0  0  0  0
 16 22  2  0  0  0  0
 17 21  1  0  0  0  0
 17 42  1  0  0  0  0
 18 23  1  0  0  0  0
 19 20  2  0  0  0  0
 19 30  1  0  0  0  0
 20 31  1  0  0  0  0
 21 25  1  0  0  0  0
 21 43  1  0  0  0  0
 22 24  1  0  0  0  0
 22 28  1  0  0  0  0
 23 24  2  0  0  0  0
 23 26  1  0  0  0  0
 24 29  1  0  0  0  0
 25 44  1  0  0  0  0
 25 45  1  0  0  0  0
 26 27  2  0  0  0  0
 26 33  1  0  0  0  0
 27 35  1  0  0  0  0
 30 32  2  0  0  0  0
 30 47  1  0  0  0  0
 31 34  2  0  0  0  0
 31 48  1  0  0  0  0
 32 34  1  0  0  0  0
 33 37  2  0  0  0  0
 33 50  1  0  0  0  0
 34 51  1  0  0  0  0
 35 38  2  0  0  0  0
 35 53  1  0  0  0  0
 36 39  1  0  0  0  0
 36 40  1  0  0  0  0
 36 55  1  0  0  0  0
 37 38  1  0  0  0  0
 37 56  1  0  0  0  0
 39 57  1  0  0  0  0
 39 58  1  0  0  0  0
 40 59  1  0  0  0  0
 40 60  1  0  0  0  0
M  END
> <PUBCHEM_COMPOUND_CID>
44355564

> <PUBCHEM_COMPOUND_CANONICALIZED>
1

> <PUBCHEM_CACTVS_COMPLEXITY>
1020

> <PUBCHEM_CACTVS_HBOND_ACCEPTOR>
10

> <PUBCHEM_CACTVS_HBOND_DONOR>
8

> <PUBCHEM_CACTVS_ROTATABLE_BOND>
5

> <PUBCHEM_CACTVS_SUBSKEYS>
AAADceB7vAAAAAAAAAAAAAAAAAAAAWLFiQAwYMAAAAAAAFgB/gAAHgAYCAAADDzhngYwxvPvlgCoAyVyVACCgCQlMiAa+aE+fNgLdvLClZOecQhn1Dnb2Qe92fOe6AACQgASACDQAASEACQAQAAAAAAAAA==

> <PUBCHEM_IUPAC_OPENEYE_NAME>
3-[(2R,3R,4R)-3,4-dihydroxytetrahydrofuran-2-yl]-6,20-dihydroxy-13-[[2-hydroxy-1-(hydroxymethyl)ethyl]amino]-3,13,23-triazahexacyclo[14.7.0.02,10.04,9.011,15.017,22]tricosa-1,4(9),5,7,10,15,17(22),18,20-nonaene-12,14-dione

> <PUBCHEM_IUPAC_CAS_NAME>
3-[(2R,3R,4R)-3,4-dihydroxy-2-oxolanyl]-13-(1,3-dihydroxypropan-2-ylamino)-6,20-dihydroxy-3,13,23-triazahexacyclo[14.7.0.02,10.04,9.011,15.017,22]tricosa-1,4(9),5,7,10,15,17(22),18,20-nonaene-12,14-dione

> <PUBCHEM_IUPAC_NAME_MARKUP>
3-[(2<I>R</I>,3<I>R</I>,4<I>R</I>)-3,4-dihydroxyoxolan-2-yl]-13-(1,3-dihydroxypropan-2-ylamino)-6,20-dihydroxy-3,13,23-triazahexacyclo[14.7.0.0<SUP>2,10</SUP>.0<SUP>4,9</SUP>.0<SUP>11,15</SUP>.0<SUP>17,22</SUP>]tricosa-1,4(9),5,7,10,15,17(22),18,20-nonaene-12,14-dione

> <PUBCHEM_IUPAC_NAME>
3-[(2R,3R,4R)-3,4-dihydroxyoxolan-2-yl]-13-(1,3-dihydroxypropan-2-ylamino)-6,20-dihydroxy-3,13,23-triazahexacyclo[14.7.0.02,10.04,9.011,15.017,22]tricosa-1,4(9),5,7,10,15,17(22),18,20-nonaene-12,14-dione

> <PUBCHEM_IUPAC_SYSTEMATIC_NAME>
3-[(2R,3R,4R)-3,4-bis(oxidanyl)oxolan-2-yl]-13-[1,3-bis(oxidanyl)propan-2-ylamino]-6,20-bis(oxidanyl)-3,13,23-triazahexacyclo[14.7.0.02,10.04,9.011,15.017,22]tricosa-1,4(9),5,7,10,15,17(22),18,20-nonaene-12,14-dione

> <PUBCHEM_IUPAC_TRADITIONAL_NAME>
3-[(2R,3R,4R)-3,4-dihydroxytetrahydrofuran-2-yl]-6,20-dihydroxy-13-[(2-hydroxy-1-methylol-ethyl)amino]-3,13,23-triazahexacyclo[14.7.0.02,10.04,9.011,15.017,22]tricosa-1,4(9),5,7,10,15,17(22),18,20-nonaene-12,14-quinone

> <PUBCHEM_IUPAC_INCHI>
InChI=1S/C27H24N4O9/c32-7-10(8-33)29-31-25(38)20-18-13-3-1-11(34)5-15(13)28-22(18)23-19(21(20)26(31)39)14-4-2-12(35)6-16(14)30(23)27-24(37)17(36)9-40-27/h1-6,10,17,24,27-29,32-37H,7-9H2/t17-,24-,27-/m1/s1

> <PUBCHEM_IUPAC_INCHIKEY>
KVRDNNFTUULNAQ-GRMVFTJISA-N

> <PUBCHEM_XLOGP3_AA>
0

> <PUBCHEM_EXACT_MASS>
548.15432836

> <PUBCHEM_MOLECULAR_FORMULA>
C27H24N4O9

> <PUBCHEM_MOLECULAR_WEIGHT>
548.5

> <PUBCHEM_SMILES>
C1[C@H]([C@H]([C@@H](O1)N2C3=C(C=CC(=C3)O)C4=C5C(=C6C7=C(C=C(C=C7)O)NC6=C42)C(=O)N(C5=O)NC(CO)CO)O)O

> <PUBCHEM_OPENEYE_CAN_SMILES>
C1C(C(C(O1)N2C3=C(C=CC(=C3)O)C4=C5C(=C6C7=C(C=C(C=C7)O)NC6=C42)C(=O)N(C5=O)NC(CO)CO)O)O

> <PUBCHEM_OPENEYE_ISO_SMILES>
C1[C@H]([C@H]([C@@H](O1)N2C3=C(C=CC(=C3)O)C4=C5C(=C6C7=C(C=C(C=C7)O)NC6=C42)C(=O)N(C5=O)NC(CO)CO)O)O

> <PUBCHEM_CACTVS_TPSA>
201

> <PUBCHEM_MONOISOTOPIC_WEIGHT>
548.15432836

> <PUBCHEM_TOTAL_CHARGE>
0

> <PUBCHEM_HEAVY_ATOM_COUNT>
40

> <PUBCHEM_ATOM_DEF_STEREO_COUNT>
3

> <PUBCHEM_ATOM_UDEF_STEREO_COUNT>
0

> <PUBCHEM_BOND_DEF_STEREO_COUNT>
0

> <PUBCHEM_BOND_UDEF_STEREO_COUNT>
0

> <PUBCHEM_ISOTOPIC_ATOM_COUNT>
0

> <PUBCHEM_COMPONENT_COUNT>
1

> <PUBCHEM_CACTVS_TAUTO_COUNT>
-1

> <PUBCHEM_COORDINATE_TYPE>
1
5
255

> <PUBCHEM_BONDANNOTATIONS>
14  10  5
10  15  8
10  19  8
11  18  8
11  27  8
15  16  8
15  18  8
16  20  8
16  22  8
18  23  8
19  20  8
19  30  8
17  2  6
20  31  8
22  24  8
23  24  8
23  26  8
26  27  8
26  33  8
27  35  8
21  3  6
30  32  8
31  34  8
32  34  8
33  37  8
35  38  8
37  38  8

$$$$
