9860448
  -OEChem-03192523302D

 35 38  0     0  0  0  0  0  0999 V2000
    2.8660   -0.6279    0.0000 O   0  0  0  0  0  0  0  0  0  0  0  0
    6.4103   -2.4326    0.0000 N   0  0  0  0  0  0  0  0  0  0  0  0
    6.1374    0.9321    0.0000 N   0  0  0  0  0  0  0  0  0  0  0  0
    6.5148    2.7153    0.0000 N   0  0  0  0  0  0  0  0  0  0  0  0
    8.4158    2.0940    0.0000 N   0  0  0  0  0  0  0  0  0  0  0  0
    6.4103   -0.8232    0.0000 C   0  0  0  0  0  0  0  0  0  0  0  0
    5.4641   -1.1279    0.0000 C   0  0  0  0  0  0  0  0  0  0  0  0
    5.4641   -2.1279    0.0000 C   0  0  0  0  0  0  0  0  0  0  0  0
    6.7210    0.1273    0.0000 C   0  0  0  0  0  0  0  0  0  0  0  0
    6.9939   -1.6279    0.0000 C   0  0  0  0  0  0  0  0  0  0  0  0
    4.5981   -0.6279    0.0000 C   0  0  0  0  0  0  0  0  0  0  0  0
    4.5981   -2.6279    0.0000 C   0  0  0  0  0  0  0  0  0  0  0  0
    7.6672    0.4321    0.0000 C   0  0  0  0  0  0  0  0  0  0  0  0
    6.7210   -3.3832    0.0000 C   0  0  0  0  0  0  0  0  0  0  0  0
    6.7210    1.7368    0.0000 C   0  0  0  0  0  0  0  0  0  0  0  0
    7.6715    1.4262    0.0000 C   0  0  0  0  0  0  0  0  0  0  0  0
    3.7320   -1.1279    0.0000 C   0  0  0  0  0  0  0  0  0  0  0  0
    3.7320   -2.1279    0.0000 C   0  0  0  0  0  0  0  0  0  0  0  0
    7.2591    3.3832    0.0000 C   0  0  0  0  0  0  0  0  0  0  0  0
    8.2096    3.0725    0.0000 C   0  0  0  0  0  0  0  0  0  0  0  0
    2.0000   -1.1279    0.0000 C   0  0  0  0  0  0  0  0  0  0  0  0
    7.6139   -1.6279    0.0000 H   0  0  0  0  0  0  0  0  0  0  0  0
    4.5981   -0.0079    0.0000 H   0  0  0  0  0  0  0  0  0  0  0  0
    4.5981   -3.2479    0.0000 H   0  0  0  0  0  0  0  0  0  0  0  0
    5.5174    0.9321    0.0000 H   0  0  0  0  0  0  0  0  0  0  0  0
    8.1675    0.0659    0.0000 H   0  0  0  0  0  0  0  0  0  0  0  0
    6.1317   -3.5758    0.0000 H   0  0  0  0  0  0  0  0  0  0  0  0
    6.9136   -3.9725    0.0000 H   0  0  0  0  0  0  0  0  0  0  0  0
    7.3103   -3.1906    0.0000 H   0  0  0  0  0  0  0  0  0  0  0  0
    3.1951   -2.4379    0.0000 H   0  0  0  0  0  0  0  0  0  0  0  0
    7.1312    3.9898    0.0000 H   0  0  0  0  0  0  0  0  0  0  0  0
    8.6710    3.4866    0.0000 H   0  0  0  0  0  0  0  0  0  0  0  0
    1.6900   -0.5910    0.0000 H   0  0  0  0  0  0  0  0  0  0  0  0
    1.4631   -1.4379    0.0000 H   0  0  0  0  0  0  0  0  0  0  0  0
    2.3100   -1.6648    0.0000 H   0  0  0  0  0  0  0  0  0  0  0  0
  1 17  1  0  0  0  0
  1 21  1  0  0  0  0
  2  8  1  0  0  0  0
  2 10  1  0  0  0  0
  2 14  1  0  0  0  0
  3  9  1  0  0  0  0
  3 15  1  0  0  0  0
  3 25  1  0  0  0  0
  4 15  2  0  0  0  0
  4 19  1  0  0  0  0
  5 16  2  0  0  0  0
  5 20  1  0  0  0  0
  6  7  1  0  0  0  0
  6  9  1  0  0  0  0
  6 10  2  0  0  0  0
  7  8  2  0  0  0  0
  7 11  1  0  0  0  0
  8 12  1  0  0  0  0
  9 13  2  0  0  0  0
 10 22  1  0  0  0  0
 11 17  2  0  0  0  0
 11 23  1  0  0  0  0
 12 18  2  0  0  0  0
 12 24  1  0  0  0  0
 13 16  1  0  0  0  0
 13 26  1  0  0  0  0
 14 27  1  0  0  0  0
 14 28  1  0  0  0  0
 14 29  1  0  0  0  0
 15 16  1  0  0  0  0
 17 18  1  0  0  0  0
 18 30  1  0  0  0  0
 19 20  2  0  0  0  0
 19 31  1  0  0  0  0
 20 32  1  0  0  0  0
 21 33  1  0  0  0  0
 21 34  1  0  0  0  0
 21 35  1  0  0  0  0
M  END
> <PUBCHEM_COMPOUND_CID>
9860448

> <PUBCHEM_COMPOUND_CANONICALIZED>
1

> <PUBCHEM_CACTVS_COMPLEXITY>
379

> <PUBCHEM_CACTVS_HBOND_ACCEPTOR>
3

> <PUBCHEM_CACTVS_HBOND_DONOR>
1

> <PUBCHEM_CACTVS_ROTATABLE_BOND>
2

> <PUBCHEM_CACTVS_SUBSKEYS>
AAADccB7oAAAAAAAAAAAAAAAAAAAAWLAAAA8QAAAAAAAAFgB/gAAHgAQAAAADAzBnwY/9v/NlACgAzZnZACCiC2xMqAJ2SA+fJiMbuLE+duUNChs0BPI6Cew0PMOgEABAAACAAAAgAIAAAQAAAAAAAAAAA==

> <PUBCHEM_IUPAC_OPENEYE_NAME>
6-(5-methoxy-1-methyl-indol-3-yl)-5H-pyrrolo[2,3-b]pyrazine

> <PUBCHEM_IUPAC_CAS_NAME>
6-(5-methoxy-1-methyl-3-indolyl)-5H-pyrrolo[2,3-b]pyrazine

> <PUBCHEM_IUPAC_NAME_MARKUP>
6-(5-methoxy-1-methylindol-3-yl)-5<I>H</I>-pyrrolo[2,3-b]pyrazine

> <PUBCHEM_IUPAC_NAME>
6-(5-methoxy-1-methylindol-3-yl)-5H-pyrrolo[2,3-b]pyrazine

> <PUBCHEM_IUPAC_SYSTEMATIC_NAME>
6-(5-methoxy-1-methyl-indol-3-yl)-5H-pyrrolo[2,3-b]pyrazine

> <PUBCHEM_IUPAC_TRADITIONAL_NAME>
6-(5-methoxy-1-methyl-indol-3-yl)-5H-pyrrolo[2,3-b]pyrazine

> <PUBCHEM_IUPAC_INCHI>
InChI=1S/C16H14N4O/c1-20-9-12(11-7-10(21-2)3-4-15(11)20)13-8-14-16(19-13)18-6-5-17-14/h3-9H,1-2H3,(H,18,19)

> <PUBCHEM_IUPAC_INCHIKEY>
MIJMZVTYIXYSDK-UHFFFAOYSA-N

> <PUBCHEM_XLOGP3_AA>
2

> <PUBCHEM_EXACT_MASS>
278.11676108

> <PUBCHEM_MOLECULAR_FORMULA>
C16H14N4O

> <PUBCHEM_MOLECULAR_WEIGHT>
278.31

> <PUBCHEM_SMILES>
CN1C=C(C2=C1C=CC(=C2)OC)C3=CC4=NC=CN=C4N3

> <PUBCHEM_OPENEYE_CAN_SMILES>
CN1C=C(C2=C1C=CC(=C2)OC)C3=CC4=NC=CN=C4N3

> <PUBCHEM_OPENEYE_ISO_SMILES>
CN1C=C(C2=C1C=CC(=C2)OC)C3=CC4=NC=CN=C4N3

> <PUBCHEM_CACTVS_TPSA>
55.7

> <PUBCHEM_MONOISOTOPIC_WEIGHT>
278.11676108

> <PUBCHEM_TOTAL_CHARGE>
0

> <PUBCHEM_HEAVY_ATOM_COUNT>
21

> <PUBCHEM_ATOM_DEF_STEREO_COUNT>
0

> <PUBCHEM_ATOM_UDEF_STEREO_COUNT>
0

> <PUBCHEM_BOND_DEF_STEREO_COUNT>
0

> <PUBCHEM_BOND_UDEF_STEREO_COUNT>
0

> <PUBCHEM_ISOTOPIC_ATOM_COUNT>
0

> <PUBCHEM_COMPONENT_COUNT>
1

> <PUBCHEM_CACTVS_TAUTO_COUNT>
-1

> <PUBCHEM_COORDINATE_TYPE>
1
5
255

> <PUBCHEM_BONDANNOTATIONS>
11  17  8
12  18  8
13  16  8
15  16  8
17  18  8
19  20  8
2  10  8
2  8  8
3  15  8
3  9  8
4  15  8
4  19  8
5  16  8
5  20  8
6  10  8
6  7  8
7  11  8
7  8  8
8  12  8
9  13  8

$$$$
