9826373
  -OEChem-03202507002D

 66 72  0     0  0  0  0  0  0999 V2000
    3.4026    3.7502    0.0000 O   0  0  0  0  0  0  0  0  0  0  0  0
    6.7523    4.8322    0.0000 O   0  0  0  0  0  0  0  0  0  0  0  0
    5.6103   -2.4731    0.0000 N   0  0  0  0  0  0  0  0  0  0  0  0
    4.6783    0.3784    0.0000 N   0  0  0  0  0  0  0  0  0  0  0  0
    4.9917    4.5565    0.0000 N   0  0  0  0  0  0  0  0  0  0  0  0
    7.6900    1.3513    0.0000 N   0  0  0  0  0  0  0  0  0  0  0  0
    5.2531   -4.1679    0.0000 C   0  0  0  0  0  0  0  0  0  0  0  0
    4.3026   -4.4786    0.0000 C   0  0  0  0  0  0  0  0  0  0  0  0
    5.0469   -5.1464    0.0000 C   0  0  0  0  0  0  0  0  0  0  0  0
    5.9209   -3.4236    0.0000 C   0  0  0  0  0  0  0  0  0  0  0  0
    4.9889   -0.5721    0.0000 C   0  0  0  0  0  0  0  0  0  0  0  0
    4.6318   -2.2669    0.0000 C   0  0  0  0  0  0  0  0  0  0  0  0
    6.2781   -1.7288    0.0000 C   0  0  0  0  0  0  0  0  0  0  0  0
    4.3211   -1.3164    0.0000 C   0  0  0  0  0  0  0  0  0  0  0  0
    5.9674   -0.7783    0.0000 C   0  0  0  0  0  0  0  0  0  0  0  0
    3.7320    0.6832    0.0000 C   0  0  0  0  0  0  0  0  0  0  0  0
    5.2619    1.1832    0.0000 C   0  0  0  0  0  0  0  0  0  0  0  0
    3.7320    1.6832    0.0000 C   0  0  0  0  0  0  0  0  0  0  0  0
    4.6783    1.9879    0.0000 C   0  0  0  0  0  0  0  0  0  0  0  0
    2.8660    0.1832    0.0000 C   0  0  0  0  0  0  0  0  0  0  0  0
    4.9889    2.9384    0.0000 C   0  0  0  0  0  0  0  0  0  0  0  0
    2.8660    2.1832    0.0000 C   0  0  0  0  0  0  0  0  0  0  0  0
    5.9405    3.2458    0.0000 C   0  0  0  0  0  0  0  0  0  0  0  0
    2.0000    0.6832    0.0000 C   0  0  0  0  0  0  0  0  0  0  0  0
    2.0000    1.6832    0.0000 C   0  0  0  0  0  0  0  0  0  0  0  0
    4.4026    3.7485    0.0000 C   0  0  0  0  0  0  0  0  0  0  0  0
    6.7485    2.6566    0.0000 C   0  0  0  0  0  0  0  0  0  0  0  0
    5.9422    4.2458    0.0000 C   0  0  0  0  0  0  0  0  0  0  0  0
    7.6942    2.9630    0.0000 C   0  0  0  0  0  0  0  0  0  0  0  0
    6.7459    1.6625    0.0000 C   0  0  0  0  0  0  0  0  0  0  0  0
    8.2792    2.1519    0.0000 C   0  0  0  0  0  0  0  0  0  0  0  0
    8.1041    3.8751    0.0000 C   0  0  0  0  0  0  0  0  0  0  0  0
    9.2741    2.2530    0.0000 C   0  0  0  0  0  0  0  0  0  0  0  0
    7.9941    0.3986    0.0000 C   0  0  0  0  0  0  0  0  0  0  0  0
    9.0990    3.9762    0.0000 C   0  0  0  0  0  0  0  0  0  0  0  0
    9.6840    3.1652    0.0000 C   0  0  0  0  0  0  0  0  0  0  0  0
    4.9145   -3.6486    0.0000 H   0  0  0  0  0  0  0  0  0  0  0  0
    4.0105   -3.9317    0.0000 H   0  0  0  0  0  0  0  0  0  0  0  0
    3.8146   -4.8612    0.0000 H   0  0  0  0  0  0  0  0  0  0  0  0
    4.7192   -5.6728    0.0000 H   0  0  0  0  0  0  0  0  0  0  0  0
    5.6221   -5.3777    0.0000 H   0  0  0  0  0  0  0  0  0  0  0  0
    6.3035   -3.9115    0.0000 H   0  0  0  0  0  0  0  0  0  0  0  0
    6.4678   -3.1316    0.0000 H   0  0  0  0  0  0  0  0  0  0  0  0
    5.4030   -0.1106    0.0000 H   0  0  0  0  0  0  0  0  0  0  0  0
    4.0179   -2.3542    0.0000 H   0  0  0  0  0  0  0  0  0  0  0  0
    4.6112   -2.8866    0.0000 H   0  0  0  0  0  0  0  0  0  0  0  0
    6.6607   -2.2167    0.0000 H   0  0  0  0  0  0  0  0  0  0  0  0
    6.8250   -1.4368    0.0000 H   0  0  0  0  0  0  0  0  0  0  0  0
    3.9385   -0.8285    0.0000 H   0  0  0  0  0  0  0  0  0  0  0  0
    3.7742   -1.6084    0.0000 H   0  0  0  0  0  0  0  0  0  0  0  0
    6.5812   -0.6909    0.0000 H   0  0  0  0  0  0  0  0  0  0  0  0
    5.9880   -0.1586    0.0000 H   0  0  0  0  0  0  0  0  0  0  0  0
    5.8819    1.1832    0.0000 H   0  0  0  0  0  0  0  0  0  0  0  0
    2.8660   -0.4368    0.0000 H   0  0  0  0  0  0  0  0  0  0  0  0
    2.8660    2.8032    0.0000 H   0  0  0  0  0  0  0  0  0  0  0  0
    1.4631    0.3732    0.0000 H   0  0  0  0  0  0  0  0  0  0  0  0
    1.4631    1.9932    0.0000 H   0  0  0  0  0  0  0  0  0  0  0  0
    4.8012    5.1464    0.0000 H   0  0  0  0  0  0  0  0  0  0  0  0
    6.2431    1.2998    0.0000 H   0  0  0  0  0  0  0  0  0  0  0  0
    7.7414    4.3780    0.0000 H   0  0  0  0  0  0  0  0  0  0  0  0
    9.6368    1.7502    0.0000 H   0  0  0  0  0  0  0  0  0  0  0  0
    7.4035    0.2101    0.0000 H   0  0  0  0  0  0  0  0  0  0  0  0
    8.1826   -0.1920    0.0000 H   0  0  0  0  0  0  0  0  0  0  0  0
    8.5848    0.5871    0.0000 H   0  0  0  0  0  0  0  0  0  0  0  0
    9.3531    4.5417    0.0000 H   0  0  0  0  0  0  0  0  0  0  0  0
   10.3008    3.2278    0.0000 H   0  0  0  0  0  0  0  0  0  0  0  0
  1 26  2  0  0  0  0
  2 28  2  0  0  0  0
  3 10  1  0  0  0  0
  3 12  1  0  0  0  0
  3 13  1  0  0  0  0
  4 11  1  0  0  0  0
  4 16  1  0  0  0  0
  4 17  1  0  0  0  0
  5 26  1  0  0  0  0
  5 28  1  0  0  0  0
  5 58  1  0  0  0  0
  6 30  1  0  0  0  0
  6 31  1  0  0  0  0
  6 34  1  0  0  0  0
  7  8  1  0  0  0  0
  7  9  1  0  0  0  0
  7 10  1  0  0  0  0
  7 37  1  0  0  0  0
  8  9  1  0  0  0  0
  8 38  1  0  0  0  0
  8 39  1  0  0  0  0
  9 40  1  0  0  0  0
  9 41  1  0  0  0  0
 10 42  1  0  0  0  0
 10 43  1  0  0  0  0
 11 14  1  0  0  0  0
 11 15  1  0  0  0  0
 11 44  1  0  0  0  0
 12 14  1  0  0  0  0
 12 45  1  0  0  0  0
 12 46  1  0  0  0  0
 13 15  1  0  0  0  0
 13 47  1  0  0  0  0
 13 48  1  0  0  0  0
 14 49  1  0  0  0  0
 14 50  1  0  0  0  0
 15 51  1  0  0  0  0
 15 52  1  0  0  0  0
 16 18  1  0  0  0  0
 16 20  2  0  0  0  0
 17 19  2  0  0  0  0
 17 53  1  0  0  0  0
 18 19  1  0  0  0  0
 18 22  2  0  0  0  0
 19 21  1  0  0  0  0
 20 24  1  0  0  0  0
 20 54  1  0  0  0  0
 21 23  2  0  0  0  0
 21 26  1  0  0  0  0
 22 25  1  0  0  0  0
 22 55  1  0  0  0  0
 23 27  1  0  0  0  0
 23 28  1  0  0  0  0
 24 25  2  0  0  0  0
 24 56  1  0  0  0  0
 25 57  1  0  0  0  0
 27 29  1  0  0  0  0
 27 30  2  0  0  0  0
 29 31  1  0  0  0  0
 29 32  2  0  0  0  0
 30 59  1  0  0  0  0
 31 33  2  0  0  0  0
 32 35  1  0  0  0  0
 32 60  1  0  0  0  0
 33 36  1  0  0  0  0
 33 61  1  0  0  0  0
 34 62  1  0  0  0  0
 34 63  1  0  0  0  0
 34 64  1  0  0  0  0
 35 36  2  0  0  0  0
 35 65  1  0  0  0  0
 36 66  1  0  0  0  0
M  END
> <PUBCHEM_COMPOUND_CID>
9826373

> <PUBCHEM_COMPOUND_CANONICALIZED>
1

> <PUBCHEM_CACTVS_COMPLEXITY>
920

> <PUBCHEM_CACTVS_HBOND_ACCEPTOR>
3

> <PUBCHEM_CACTVS_HBOND_DONOR>
1

> <PUBCHEM_CACTVS_ROTATABLE_BOND>
5

> <PUBCHEM_CACTVS_SUBSKEYS>
AAADceB7sAAAAAAAAAAAAAAAGAAAAWLEAAA8YIAAAAAAAFgB/gAAHgAQAAAADSjBngQ+wPPMEACoAzV3VACCgCAxAiAI2CE4ZNgIIPLA1ZGEIAhghCDIyQccicCegAAAAAACAAAAAAAAAAQAAAAAAAAAAA==

> <PUBCHEM_IUPAC_OPENEYE_NAME>
3-[1-[1-(cyclopropylmethyl)-4-piperidyl]indol-3-yl]-4-(1-methylindol-3-yl)pyrrole-2,5-dione

> <PUBCHEM_IUPAC_CAS_NAME>
3-[1-[1-(cyclopropylmethyl)-4-piperidinyl]-3-indolyl]-4-(1-methyl-3-indolyl)pyrrole-2,5-dione

> <PUBCHEM_IUPAC_NAME_MARKUP>
3-[1-[1-(cyclopropylmethyl)piperidin-4-yl]indol-3-yl]-4-(1-methylindol-3-yl)pyrrole-2,5-dione

> <PUBCHEM_IUPAC_NAME>
3-[1-[1-(cyclopropylmethyl)piperidin-4-yl]indol-3-yl]-4-(1-methylindol-3-yl)pyrrole-2,5-dione

> <PUBCHEM_IUPAC_SYSTEMATIC_NAME>
3-[1-[1-(cyclopropylmethyl)piperidin-4-yl]indol-3-yl]-4-(1-methylindol-3-yl)pyrrole-2,5-dione

> <PUBCHEM_IUPAC_TRADITIONAL_NAME>
3-[1-[1-(cyclopropylmethyl)-4-piperidyl]indol-3-yl]-4-(1-methylindol-3-yl)-3-pyrroline-2,5-quinone

> <PUBCHEM_IUPAC_INCHI>
InChI=1S/C30H30N4O2/c1-32-17-23(21-6-2-4-8-25(21)32)27-28(30(36)31-29(27)35)24-18-34(26-9-5-3-7-22(24)26)20-12-14-33(15-13-20)16-19-10-11-19/h2-9,17-20H,10-16H2,1H3,(H,31,35,36)

> <PUBCHEM_IUPAC_INCHIKEY>
VYXIZKJRRNWQAK-UHFFFAOYSA-N

> <PUBCHEM_XLOGP3_AA>
4

> <PUBCHEM_EXACT_MASS>
478.23687621

> <PUBCHEM_MOLECULAR_FORMULA>
C30H30N4O2

> <PUBCHEM_MOLECULAR_WEIGHT>
478.6

> <PUBCHEM_SMILES>
CN1C=C(C2=CC=CC=C21)C3=C(C(=O)NC3=O)C4=CN(C5=CC=CC=C54)C6CCN(CC6)CC7CC7

> <PUBCHEM_OPENEYE_CAN_SMILES>
CN1C=C(C2=CC=CC=C21)C3=C(C(=O)NC3=O)C4=CN(C5=CC=CC=C54)C6CCN(CC6)CC7CC7

> <PUBCHEM_OPENEYE_ISO_SMILES>
CN1C=C(C2=CC=CC=C21)C3=C(C(=O)NC3=O)C4=CN(C5=CC=CC=C54)C6CCN(CC6)CC7CC7

> <PUBCHEM_CACTVS_TPSA>
59.3

> <PUBCHEM_MONOISOTOPIC_WEIGHT>
478.23687621

> <PUBCHEM_TOTAL_CHARGE>
0

> <PUBCHEM_HEAVY_ATOM_COUNT>
36

> <PUBCHEM_ATOM_DEF_STEREO_COUNT>
0

> <PUBCHEM_ATOM_UDEF_STEREO_COUNT>
0

> <PUBCHEM_BOND_DEF_STEREO_COUNT>
0

> <PUBCHEM_BOND_UDEF_STEREO_COUNT>
0

> <PUBCHEM_ISOTOPIC_ATOM_COUNT>
0

> <PUBCHEM_COMPONENT_COUNT>
1

> <PUBCHEM_CACTVS_TAUTO_COUNT>
-1

> <PUBCHEM_COORDINATE_TYPE>
1
5
255

> <PUBCHEM_BONDANNOTATIONS>
16  18  8
16  20  8
17  19  8
18  19  8
18  22  8
20  24  8
22  25  8
24  25  8
27  29  8
27  30  8
29  31  8
29  32  8
31  33  8
32  35  8
33  36  8
35  36  8
4  16  8
4  17  8
6  30  8
6  31  8

$$$$
