11624999
  -OEChem-03202505122D

 45 48  0     0  0  0  0  0  0999 V2000
    2.0000    4.2500    0.0000 F   0  0  0  0  0  0  0  0  0  0  0  0
    4.5981    0.7500    0.0000 O   0  0  0  0  0  0  0  0  0  0  0  0
    8.7260   -4.2500    0.0000 N   0  0  0  0  0  0  0  0  0  0  0  0
    8.1424   -5.0547    0.0000 N   0  0  0  0  0  0  0  0  0  0  0  0
    6.3301   -5.2500    0.0000 N   0  0  0  0  0  0  0  0  0  0  0  0
    6.3301    0.7500    0.0000 N   0  0  0  0  0  0  0  0  0  0  0  0
    8.4530   -2.4947    0.0000 N   0  0  0  0  0  0  0  0  0  0  0  0
    5.4641    2.2500    0.0000 N   0  0  0  0  0  0  0  0  0  0  0  0
    6.3301   -3.2500    0.0000 C   0  0  0  0  0  0  0  0  0  0  0  0
    7.1962   -3.7500    0.0000 C   0  0  0  0  0  0  0  0  0  0  0  0
    6.3301   -2.2500    0.0000 C   0  0  0  0  0  0  0  0  0  0  0  0
    7.1962   -4.7500    0.0000 C   0  0  0  0  0  0  0  0  0  0  0  0
    8.1424   -3.4453    0.0000 C   0  0  0  0  0  0  0  0  0  0  0  0
    5.4641   -3.7500    0.0000 C   0  0  0  0  0  0  0  0  0  0  0  0
    7.1962   -1.7500    0.0000 C   0  0  0  0  0  0  0  0  0  0  0  0
    5.4641   -1.7500    0.0000 C   0  0  0  0  0  0  0  0  0  0  0  0
    6.3301   -0.2500    0.0000 C   0  0  0  0  0  0  0  0  0  0  0  0
    7.1962   -0.7500    0.0000 C   0  0  0  0  0  0  0  0  0  0  0  0
    5.4641   -0.7500    0.0000 C   0  0  0  0  0  0  0  0  0  0  0  0
    5.4641   -4.7500    0.0000 C   0  0  0  0  0  0  0  0  0  0  0  0
    4.5981    2.7500    0.0000 C   0  0  0  0  0  0  0  0  0  0  0  0
    3.7320    4.2500    0.0000 C   0  0  0  0  0  0  0  0  0  0  0  0
    4.5981    3.7500    0.0000 C   0  0  0  0  0  0  0  0  0  0  0  0
    5.4641    1.2500    0.0000 C   0  0  0  0  0  0  0  0  0  0  0  0
    3.7320    2.2500    0.0000 C   0  0  0  0  0  0  0  0  0  0  0  0
    2.8660    3.7500    0.0000 C   0  0  0  0  0  0  0  0  0  0  0  0
    2.8660    2.7500    0.0000 C   0  0  0  0  0  0  0  0  0  0  0  0
    3.7320    5.2500    0.0000 C   0  0  0  0  0  0  0  0  0  0  0  0
    7.7331   -2.0600    0.0000 H   0  0  0  0  0  0  0  0  0  0  0  0
    4.9272   -2.0600    0.0000 H   0  0  0  0  0  0  0  0  0  0  0  0
    4.9272   -3.4400    0.0000 H   0  0  0  0  0  0  0  0  0  0  0  0
    7.7331   -0.4400    0.0000 H   0  0  0  0  0  0  0  0  0  0  0  0
    4.9272   -0.4400    0.0000 H   0  0  0  0  0  0  0  0  0  0  0  0
    9.3460   -4.2500    0.0000 H   0  0  0  0  0  0  0  0  0  0  0  0
    4.9272   -5.0600    0.0000 H   0  0  0  0  0  0  0  0  0  0  0  0
    6.8671    1.0600    0.0000 H   0  0  0  0  0  0  0  0  0  0  0  0
    5.1350    4.0600    0.0000 H   0  0  0  0  0  0  0  0  0  0  0  0
    9.0597   -2.3669    0.0000 H   0  0  0  0  0  0  0  0  0  0  0  0
    8.0390   -2.0333    0.0000 H   0  0  0  0  0  0  0  0  0  0  0  0
    6.0010    2.5600    0.0000 H   0  0  0  0  0  0  0  0  0  0  0  0
    3.7320    1.6300    0.0000 H   0  0  0  0  0  0  0  0  0  0  0  0
    2.3291    2.4400    0.0000 H   0  0  0  0  0  0  0  0  0  0  0  0
    4.3520    5.2500    0.0000 H   0  0  0  0  0  0  0  0  0  0  0  0
    3.7320    5.8700    0.0000 H   0  0  0  0  0  0  0  0  0  0  0  0
    3.1120    5.2500    0.0000 H   0  0  0  0  0  0  0  0  0  0  0  0
  1 26  1  0  0  0  0
  2 24  2  0  0  0  0
  3  4  1  0  0  0  0
  3 13  1  0  0  0  0
  3 34  1  0  0  0  0
  4 12  2  0  0  0  0
  5 12  1  0  0  0  0
  5 20  2  0  0  0  0
  6 17  1  0  0  0  0
  6 24  1  0  0  0  0
  6 36  1  0  0  0  0
  7 13  1  0  0  0  0
  7 38  1  0  0  0  0
  7 39  1  0  0  0  0
  8 21  1  0  0  0  0
  8 24  1  0  0  0  0
  8 40  1  0  0  0  0
  9 10  1  0  0  0  0
  9 11  1  0  0  0  0
  9 14  2  0  0  0  0
 10 12  1  0  0  0  0
 10 13  2  0  0  0  0
 11 15  2  0  0  0  0
 11 16  1  0  0  0  0
 14 20  1  0  0  0  0
 14 31  1  0  0  0  0
 15 18  1  0  0  0  0
 15 29  1  0  0  0  0
 16 19  2  0  0  0  0
 16 30  1  0  0  0  0
 17 18  2  0  0  0  0
 17 19  1  0  0  0  0
 18 32  1  0  0  0  0
 19 33  1  0  0  0  0
 20 35  1  0  0  0  0
 21 23  2  0  0  0  0
 21 25  1  0  0  0  0
 22 23  1  0  0  0  0
 22 26  2  0  0  0  0
 22 28  1  0  0  0  0
 23 37  1  0  0  0  0
 25 27  2  0  0  0  0
 25 41  1  0  0  0  0
 26 27  1  0  0  0  0
 27 42  1  0  0  0  0
 28 43  1  0  0  0  0
 28 44  1  0  0  0  0
 28 45  1  0  0  0  0
M  END
> <PUBCHEM_COMPOUND_CID>
11624999

> <PUBCHEM_COMPOUND_CANONICALIZED>
1

> <PUBCHEM_CACTVS_COMPLEXITY>
543

> <PUBCHEM_CACTVS_HBOND_ACCEPTOR>
5

> <PUBCHEM_CACTVS_HBOND_DONOR>
4

> <PUBCHEM_CACTVS_ROTATABLE_BOND>
3

> <PUBCHEM_CACTVS_SUBSKEYS>
AAADceB7oQAAAAAAAAAAAAAAAAAAAWAAAAA8YIAAAAAAAFgB/AAAHwAYAAAADAjBGww/8N7rEACqAjZndACShCuxAqAd+SA4ZJiIKGLA2dGEpAh4nALIyCcQgMAOiAAAQAAAAAAQAACAAAAAAAAAAAAAAA==

> <PUBCHEM_IUPAC_OPENEYE_NAME>
1-[4-(3-amino-2H-pyrazolo[3,4-b]pyridin-4-yl)phenyl]-3-(4-fluoro-3-methyl-phenyl)urea

> <PUBCHEM_IUPAC_CAS_NAME>
1-[4-(3-amino-2H-pyrazolo[3,4-b]pyridin-4-yl)phenyl]-3-(4-fluoro-3-methylphenyl)urea

> <PUBCHEM_IUPAC_NAME_MARKUP>
1-[4-(3-amino-2<I>H</I>-pyrazolo[3,4-b]pyridin-4-yl)phenyl]-3-(4-fluoro-3-methylphenyl)urea

> <PUBCHEM_IUPAC_NAME>
1-[4-(3-amino-2H-pyrazolo[3,4-b]pyridin-4-yl)phenyl]-3-(4-fluoro-3-methylphenyl)urea

> <PUBCHEM_IUPAC_SYSTEMATIC_NAME>
1-[4-(3-azanyl-2H-pyrazolo[3,4-b]pyridin-4-yl)phenyl]-3-(4-fluoranyl-3-methyl-phenyl)urea

> <PUBCHEM_IUPAC_TRADITIONAL_NAME>
1-[4-(3-amino-2H-pyrazolo[3,4-b]pyridin-4-yl)phenyl]-3-(4-fluoro-3-methyl-phenyl)urea

> <PUBCHEM_IUPAC_INCHI>
InChI=1S/C20H17FN6O/c1-11-10-14(6-7-16(11)21)25-20(28)24-13-4-2-12(3-5-13)15-8-9-23-19-17(15)18(22)26-27-19/h2-10H,1H3,(H2,24,25,28)(H3,22,23,26,27)

> <PUBCHEM_IUPAC_INCHIKEY>
LYHDXABKNJMNEZ-UHFFFAOYSA-N

> <PUBCHEM_XLOGP3_AA>
3.1

> <PUBCHEM_EXACT_MASS>
376.14478735

> <PUBCHEM_MOLECULAR_FORMULA>
C20H17FN6O

> <PUBCHEM_MOLECULAR_WEIGHT>
376.4

> <PUBCHEM_SMILES>
CC1=C(C=CC(=C1)NC(=O)NC2=CC=C(C=C2)C3=CC=NC4=NNC(=C34)N)F

> <PUBCHEM_OPENEYE_CAN_SMILES>
CC1=C(C=CC(=C1)NC(=O)NC2=CC=C(C=C2)C3=CC=NC4=NNC(=C34)N)F

> <PUBCHEM_OPENEYE_ISO_SMILES>
CC1=C(C=CC(=C1)NC(=O)NC2=CC=C(C=C2)C3=CC=NC4=NNC(=C34)N)F

> <PUBCHEM_CACTVS_TPSA>
109

> <PUBCHEM_MONOISOTOPIC_WEIGHT>
376.14478735

> <PUBCHEM_TOTAL_CHARGE>
0

> <PUBCHEM_HEAVY_ATOM_COUNT>
28

> <PUBCHEM_ATOM_DEF_STEREO_COUNT>
0

> <PUBCHEM_ATOM_UDEF_STEREO_COUNT>
0

> <PUBCHEM_BOND_DEF_STEREO_COUNT>
0

> <PUBCHEM_BOND_UDEF_STEREO_COUNT>
0

> <PUBCHEM_ISOTOPIC_ATOM_COUNT>
0

> <PUBCHEM_COMPONENT_COUNT>
1

> <PUBCHEM_CACTVS_TAUTO_COUNT>
-1

> <PUBCHEM_COORDINATE_TYPE>
1
5
255

> <PUBCHEM_BONDANNOTATIONS>
10  12  8
10  13  8
11  15  8
11  16  8
14  20  8
15  18  8
16  19  8
17  18  8
17  19  8
21  23  8
21  25  8
22  23  8
22  26  8
25  27  8
26  27  8
3  13  8
3  4  8
4  12  8
5  12  8
5  20  8
9  10  8
9  14  8

$$$$
