16095342
  -OEChem-03202504502D

 72 77  0     0  0  0  0  0  0999 V2000
    2.0000   -5.7498    0.0000 O   0  0  0  0  0  0  0  0  0  0  0  0
    5.4641   -2.7498    0.0000 O   0  0  0  0  0  0  0  0  0  0  0  0
    8.0622    4.7502    0.0000 O   0  0  0  0  0  0  0  0  0  0  0  0
   14.7289    4.2502    0.0000 O   0  0  0  0  0  0  0  0  0  0  0  0
    4.5981    1.7502    0.0000 O   0  0  0  0  0  0  0  0  0  0  0  0
    3.7320   -4.7498    0.0000 N   0  0  0  0  0  0  0  0  0  0  0  0
   11.6065    4.5550    0.0000 N   0  0  0  0  0  0  0  0  0  0  0  0
   11.6065    2.9455    0.0000 N   0  0  0  0  0  0  0  0  0  0  0  0
    8.9282    3.2502    0.0000 N   0  0  0  0  0  0  0  0  0  0  0  0
   13.7779    4.5592    0.0000 N   0  0  0  0  0  0  0  0  0  0  0  0
    6.3301    1.7502    0.0000 N   0  0  0  0  0  0  0  0  0  0  0  0
   14.7289    3.2502    0.0000 N   0  0  0  0  0  0  0  0  0  0  0  0
   13.4689    1.9902    0.0000 N   0  0  0  0  0  0  0  0  0  0  0  0
    3.7320   -5.7498    0.0000 C   0  0  0  0  0  0  0  0  0  0  0  0
    2.8660   -4.2498    0.0000 C   0  0  0  0  0  0  0  0  0  0  0  0
    4.5981   -4.2498    0.0000 C   0  0  0  0  0  0  0  0  0  0  0  0
    2.8660   -6.2498    0.0000 C   0  0  0  0  0  0  0  0  0  0  0  0
    2.0000   -4.7498    0.0000 C   0  0  0  0  0  0  0  0  0  0  0  0
    4.5981   -3.2498    0.0000 C   0  0  0  0  0  0  0  0  0  0  0  0
   10.6603    4.2502    0.0000 C   0  0  0  0  0  0  0  0  0  0  0  0
   11.9171    5.5055    0.0000 C   0  0  0  0  0  0  0  0  0  0  0  0
   12.1901    3.7502    0.0000 C   0  0  0  0  0  0  0  0  0  0  0  0
   10.6603    3.2502    0.0000 C   0  0  0  0  0  0  0  0  0  0  0  0
    5.4641   -1.7498    0.0000 C   0  0  0  0  0  0  0  0  0  0  0  0
    9.7942    4.7502    0.0000 C   0  0  0  0  0  0  0  0  0  0  0  0
   13.1901    3.7502    0.0000 C   0  0  0  0  0  0  0  0  0  0  0  0
   11.2493    6.2498    0.0000 C   0  0  0  0  0  0  0  0  0  0  0  0
    9.7942    2.7502    0.0000 C   0  0  0  0  0  0  0  0  0  0  0  0
    8.9282    4.2502    0.0000 C   0  0  0  0  0  0  0  0  0  0  0  0
    6.3301   -1.2498    0.0000 C   0  0  0  0  0  0  0  0  0  0  0  0
    4.5981   -1.2498    0.0000 C   0  0  0  0  0  0  0  0  0  0  0  0
    5.4641    0.2502    0.0000 C   0  0  0  0  0  0  0  0  0  0  0  0
   13.7779    2.9412    0.0000 C   0  0  0  0  0  0  0  0  0  0  0  0
    6.3301   -0.2498    0.0000 C   0  0  0  0  0  0  0  0  0  0  0  0
    4.5981   -0.2498    0.0000 C   0  0  0  0  0  0  0  0  0  0  0  0
    7.1962    4.2502    0.0000 C   0  0  0  0  0  0  0  0  0  0  0  0
    5.4641    1.2502    0.0000 C   0  0  0  0  0  0  0  0  0  0  0  0
    6.3301    2.7502    0.0000 C   0  0  0  0  0  0  0  0  0  0  0  0
    7.1962    3.2502    0.0000 C   0  0  0  0  0  0  0  0  0  0  0  0
    6.3301    4.7502    0.0000 C   0  0  0  0  0  0  0  0  0  0  0  0
    5.4641    3.2502    0.0000 C   0  0  0  0  0  0  0  0  0  0  0  0
    5.4641    4.2502    0.0000 C   0  0  0  0  0  0  0  0  0  0  0  0
    3.9441   -6.3324    0.0000 H   0  0  0  0  0  0  0  0  0  0  0  0
    4.3426   -5.6421    0.0000 H   0  0  0  0  0  0  0  0  0  0  0  0
    3.2646   -3.7748    0.0000 H   0  0  0  0  0  0  0  0  0  0  0  0
    2.4675   -3.7748    0.0000 H   0  0  0  0  0  0  0  0  0  0  0  0
    4.8101   -4.8324    0.0000 H   0  0  0  0  0  0  0  0  0  0  0  0
    5.2087   -4.1421    0.0000 H   0  0  0  0  0  0  0  0  0  0  0  0
    2.4675   -6.7247    0.0000 H   0  0  0  0  0  0  0  0  0  0  0  0
    3.2646   -6.7247    0.0000 H   0  0  0  0  0  0  0  0  0  0  0  0
    1.7880   -4.1672    0.0000 H   0  0  0  0  0  0  0  0  0  0  0  0
    1.3894   -4.8574    0.0000 H   0  0  0  0  0  0  0  0  0  0  0  0
    4.3860   -2.6672    0.0000 H   0  0  0  0  0  0  0  0  0  0  0  0
    3.9875   -3.3574    0.0000 H   0  0  0  0  0  0  0  0  0  0  0  0
   12.4641    5.2135    0.0000 H   0  0  0  0  0  0  0  0  0  0  0  0
   12.2997    5.9934    0.0000 H   0  0  0  0  0  0  0  0  0  0  0  0
    9.7942    5.3702    0.0000 H   0  0  0  0  0  0  0  0  0  0  0  0
   11.7108    6.6638    0.0000 H   0  0  0  0  0  0  0  0  0  0  0  0
   10.8352    6.7112    0.0000 H   0  0  0  0  0  0  0  0  0  0  0  0
   10.7878    5.8357    0.0000 H   0  0  0  0  0  0  0  0  0  0  0  0
    9.7942    2.1302    0.0000 H   0  0  0  0  0  0  0  0  0  0  0  0
    6.8671   -1.5598    0.0000 H   0  0  0  0  0  0  0  0  0  0  0  0
    4.0611   -1.5598    0.0000 H   0  0  0  0  0  0  0  0  0  0  0  0
    6.8671    0.0602    0.0000 H   0  0  0  0  0  0  0  0  0  0  0  0
    4.0611    0.0602    0.0000 H   0  0  0  0  0  0  0  0  0  0  0  0
    7.7331    2.9402    0.0000 H   0  0  0  0  0  0  0  0  0  0  0  0
    6.8671    1.4402    0.0000 H   0  0  0  0  0  0  0  0  0  0  0  0
    6.3301    5.3702    0.0000 H   0  0  0  0  0  0  0  0  0  0  0  0
    4.9272    2.9402    0.0000 H   0  0  0  0  0  0  0  0  0  0  0  0
   13.8837    1.5294    0.0000 H   0  0  0  0  0  0  0  0  0  0  0  0
   12.8624    1.8612    0.0000 H   0  0  0  0  0  0  0  0  0  0  0  0
    4.9272    4.5602    0.0000 H   0  0  0  0  0  0  0  0  0  0  0  0
  1 17  1  0  0  0  0
  1 18  1  0  0  0  0
  2 19  1  0  0  0  0
  2 24  1  0  0  0  0
  3 29  1  0  0  0  0
  3 36  1  0  0  0  0
  4 10  1  0  0  0  0
  4 12  1  0  0  0  0
  5 37  2  0  0  0  0
  6 14  1  0  0  0  0
  6 15  1  0  0  0  0
  6 16  1  0  0  0  0
  7 20  1  0  0  0  0
  7 21  1  0  0  0  0
  7 22  1  0  0  0  0
  8 22  2  0  0  0  0
  8 23  1  0  0  0  0
  9 28  1  0  0  0  0
  9 29  2  0  0  0  0
 10 26  2  0  0  0  0
 11 37  1  0  0  0  0
 11 38  1  0  0  0  0
 11 67  1  0  0  0  0
 12 33  2  0  0  0  0
 13 33  1  0  0  0  0
 13 70  1  0  0  0  0
 13 71  1  0  0  0  0
 14 17  1  0  0  0  0
 14 43  1  0  0  0  0
 14 44  1  0  0  0  0
 15 18  1  0  0  0  0
 15 45  1  0  0  0  0
 15 46  1  0  0  0  0
 16 19  1  0  0  0  0
 16 47  1  0  0  0  0
 16 48  1  0  0  0  0
 17 49  1  0  0  0  0
 17 50  1  0  0  0  0
 18 51  1  0  0  0  0
 18 52  1  0  0  0  0
 19 53  1  0  0  0  0
 19 54  1  0  0  0  0
 20 23  1  0  0  0  0
 20 25  2  0  0  0  0
 21 27  1  0  0  0  0
 21 55  1  0  0  0  0
 21 56  1  0  0  0  0
 22 26  1  0  0  0  0
 23 28  2  0  0  0  0
 24 30  2  0  0  0  0
 24 31  1  0  0  0  0
 25 29  1  0  0  0  0
 25 57  1  0  0  0  0
 26 33  1  0  0  0  0
 27 58  1  0  0  0  0
 27 59  1  0  0  0  0
 27 60  1  0  0  0  0
 28 61  1  0  0  0  0
 30 34  1  0  0  0  0
 30 62  1  0  0  0  0
 31 35  2  0  0  0  0
 31 63  1  0  0  0  0
 32 34  2  0  0  0  0
 32 35  1  0  0  0  0
 32 37  1  0  0  0  0
 34 64  1  0  0  0  0
 35 65  1  0  0  0  0
 36 39  1  0  0  0  0
 36 40  2  0  0  0  0
 38 39  2  0  0  0  0
 38 41  1  0  0  0  0
 39 66  1  0  0  0  0
 40 42  1  0  0  0  0
 40 68  1  0  0  0  0
 41 42  2  0  0  0  0
 41 69  1  0  0  0  0
 42 72  1  0  0  0  0
M  END
> <PUBCHEM_COMPOUND_CID>
16095342

> <PUBCHEM_COMPOUND_CANONICALIZED>
1

> <PUBCHEM_CACTVS_COMPLEXITY>
860

> <PUBCHEM_CACTVS_HBOND_ACCEPTOR>
11

> <PUBCHEM_CACTVS_HBOND_DONOR>
2

> <PUBCHEM_CACTVS_ROTATABLE_BOND>
10

> <PUBCHEM_CACTVS_SUBSKEYS>
AAADceB7+AAAAAAAAAAAAAAAAAAAAWLAAAA8eIEAAAAAAFgB/gAAHgAUAAAADAzhnwY/9rfcFACpAzd3dgCCiC01MqAp2CE+fNqObvLE/dufPSju1JvY6ae43APOIAAAAgAAAABAAAAEAAAAAAAAAAAAAA==

> <PUBCHEM_IUPAC_OPENEYE_NAME>
N-[3-[2-(4-amino-1,2,5-oxadiazol-3-yl)-1-ethyl-imidazo[4,5-c]pyridin-6-yl]oxyphenyl]-4-(2-morpholinoethoxy)benzamide

> <PUBCHEM_IUPAC_CAS_NAME>
N-[3-[[2-(4-amino-1,2,5-oxadiazol-3-yl)-1-ethyl-6-imidazo[4,5-c]pyridinyl]oxy]phenyl]-4-[2-(4-morpholinyl)ethoxy]benzamide

> <PUBCHEM_IUPAC_NAME_MARKUP>
<I>N</I>-[3-[2-(4-amino-1,2,5-oxadiazol-3-yl)-1-ethylimidazo[4,5-c]pyridin-6-yl]oxyphenyl]-4-(2-morpholin-4-ylethoxy)benzamide

> <PUBCHEM_IUPAC_NAME>
N-[3-[2-(4-amino-1,2,5-oxadiazol-3-yl)-1-ethylimidazo[4,5-c]pyridin-6-yl]oxyphenyl]-4-(2-morpholin-4-ylethoxy)benzamide

> <PUBCHEM_IUPAC_SYSTEMATIC_NAME>
N-[3-[2-(4-azanyl-1,2,5-oxadiazol-3-yl)-1-ethyl-imidazo[4,5-c]pyridin-6-yl]oxyphenyl]-4-(2-morpholin-4-ylethoxy)benzamide

> <PUBCHEM_IUPAC_TRADITIONAL_NAME>
N-[3-[2-(4-aminofurazan-3-yl)-1-ethyl-imidazo[4,5-c]pyridin-6-yl]oxyphenyl]-4-(2-morpholinoethoxy)benzamide

> <PUBCHEM_IUPAC_INCHI>
InChI=1S/C29H30N8O5/c1-2-37-24-17-25(31-18-23(24)33-28(37)26-27(30)35-42-34-26)41-22-5-3-4-20(16-22)32-29(38)19-6-8-21(9-7-19)40-15-12-36-10-13-39-14-11-36/h3-9,16-18H,2,10-15H2,1H3,(H2,30,35)(H,32,38)

> <PUBCHEM_IUPAC_INCHIKEY>
YOVNFNXUCOWYSG-UHFFFAOYSA-N

> <PUBCHEM_XLOGP3_AA>
2.2

> <PUBCHEM_EXACT_MASS>
570.23391609

> <PUBCHEM_MOLECULAR_FORMULA>
C29H30N8O5

> <PUBCHEM_MOLECULAR_WEIGHT>
570.6

> <PUBCHEM_SMILES>
CCN1C2=CC(=NC=C2N=C1C3=NON=C3N)OC4=CC=CC(=C4)NC(=O)C5=CC=C(C=C5)OCCN6CCOCC6

> <PUBCHEM_OPENEYE_CAN_SMILES>
CCN1C2=CC(=NC=C2N=C1C3=NON=C3N)OC4=CC=CC(=C4)NC(=O)C5=CC=C(C=C5)OCCN6CCOCC6

> <PUBCHEM_OPENEYE_ISO_SMILES>
CCN1C2=CC(=NC=C2N=C1C3=NON=C3N)OC4=CC=CC(=C4)NC(=O)C5=CC=C(C=C5)OCCN6CCOCC6

> <PUBCHEM_CACTVS_TPSA>
156

> <PUBCHEM_MONOISOTOPIC_WEIGHT>
570.23391609

> <PUBCHEM_TOTAL_CHARGE>
0

> <PUBCHEM_HEAVY_ATOM_COUNT>
42

> <PUBCHEM_ATOM_DEF_STEREO_COUNT>
0

> <PUBCHEM_ATOM_UDEF_STEREO_COUNT>
0

> <PUBCHEM_BOND_DEF_STEREO_COUNT>
0

> <PUBCHEM_BOND_UDEF_STEREO_COUNT>
0

> <PUBCHEM_ISOTOPIC_ATOM_COUNT>
0

> <PUBCHEM_COMPONENT_COUNT>
1

> <PUBCHEM_CACTVS_TAUTO_COUNT>
-1

> <PUBCHEM_COORDINATE_TYPE>
1
5
255

> <PUBCHEM_BONDANNOTATIONS>
10  26  8
12  33  8
20  23  8
20  25  8
23  28  8
24  30  8
24  31  8
25  29  8
26  33  8
30  34  8
31  35  8
32  34  8
32  35  8
36  39  8
36  40  8
38  39  8
38  41  8
4  10  8
4  12  8
40  42  8
41  42  8
7  20  8
7  22  8
8  22  8
8  23  8
9  28  8
9  29  8

$$$$
