49830283
  -OEChem-03202500502D

 49 52  0     1  0  0  0  0  0999 V2000
    5.2531    2.0882    0.0000 O   0  0  0  0  0  0  0  0  0  0  0  0
    6.8529    4.1955    0.0000 O   0  0  0  0  0  0  0  0  0  0  0  0
    5.6103    0.3934    0.0000 N   0  0  0  0  0  0  0  0  0  0  0  0
    6.8994    1.5501    0.0000 N   0  0  0  0  0  0  0  0  0  0  0  0
    4.6783   -4.0676    0.0000 N   0  0  0  0  0  0  0  0  0  0  0  0
    2.8660   -4.2629    0.0000 N   0  0  0  0  0  0  0  0  0  0  0  0
    4.3211   -0.7633    0.0000 C   0  0  0  0  0  0  0  0  0  0  0  0
    4.6318    0.1872    0.0000 C   0  0  0  0  0  0  0  0  0  0  0  0
    4.9889   -1.5076    0.0000 C   0  0  0  0  0  0  0  0  0  0  0  0
    6.2781   -0.3509    0.0000 C   0  0  0  0  0  0  0  0  0  0  0  0
    5.9674   -1.3014    0.0000 C   0  0  0  0  0  0  0  0  0  0  0  0
    4.6783   -2.4582    0.0000 C   0  0  0  0  0  0  0  0  0  0  0  0
    5.9209    1.3439    0.0000 C   0  0  0  0  0  0  0  0  0  0  0  0
    3.7320   -2.7629    0.0000 C   0  0  0  0  0  0  0  0  0  0  0  0
    7.2101    2.5007    0.0000 C   0  0  3  0  0  0  0  0  0  0  0  0
    5.2619   -3.2629    0.0000 C   0  0  0  0  0  0  0  0  0  0  0  0
    3.7320   -3.7629    0.0000 C   0  0  0  0  0  0  0  0  0  0  0  0
    8.1886    2.7069    0.0000 C   0  0  0  0  0  0  0  0  0  0  0  0
    6.5422    3.2450    0.0000 C   0  0  0  0  0  0  0  0  0  0  0  0
    2.8660   -2.2629    0.0000 C   0  0  0  0  0  0  0  0  0  0  0  0
    8.4993    3.6574    0.0000 C   0  0  0  0  0  0  0  0  0  0  0  0
    8.8564    1.9626    0.0000 C   0  0  0  0  0  0  0  0  0  0  0  0
    2.0000   -2.7629    0.0000 C   0  0  0  0  0  0  0  0  0  0  0  0
    2.0000   -3.7629    0.0000 C   0  0  0  0  0  0  0  0  0  0  0  0
    9.4778    3.8636    0.0000 C   0  0  0  0  0  0  0  0  0  0  0  0
    9.8349    2.1688    0.0000 C   0  0  0  0  0  0  0  0  0  0  0  0
   10.1456    3.1193    0.0000 C   0  0  0  0  0  0  0  0  0  0  0  0
    3.7742   -0.4713    0.0000 H   0  0  0  0  0  0  0  0  0  0  0  0
    3.9385   -1.2512    0.0000 H   0  0  0  0  0  0  0  0  0  0  0  0
    4.6112    0.8068    0.0000 H   0  0  0  0  0  0  0  0  0  0  0  0
    4.0179    0.2745    0.0000 H   0  0  0  0  0  0  0  0  0  0  0  0
    6.8250   -0.6429    0.0000 H   0  0  0  0  0  0  0  0  0  0  0  0
    6.6607    0.1370    0.0000 H   0  0  0  0  0  0  0  0  0  0  0  0
    6.3815   -1.7629    0.0000 H   0  0  0  0  0  0  0  0  0  0  0  0
    7.6242    2.0392    0.0000 H   0  0  0  0  0  0  0  0  0  0  0  0
    7.3135    1.0887    0.0000 H   0  0  0  0  0  0  0  0  0  0  0  0
    5.8819   -3.2629    0.0000 H   0  0  0  0  0  0  0  0  0  0  0  0
    4.8709   -4.6570    0.0000 H   0  0  0  0  0  0  0  0  0  0  0  0
    5.9953    3.5370    0.0000 H   0  0  0  0  0  0  0  0  0  0  0  0
    6.1597    2.7571    0.0000 H   0  0  0  0  0  0  0  0  0  0  0  0
    2.8660   -1.6429    0.0000 H   0  0  0  0  0  0  0  0  0  0  0  0
    8.0852    4.1189    0.0000 H   0  0  0  0  0  0  0  0  0  0  0  0
    8.6638    1.3732    0.0000 H   0  0  0  0  0  0  0  0  0  0  0  0
    1.4631   -2.4529    0.0000 H   0  0  0  0  0  0  0  0  0  0  0  0
    1.4631   -4.0729    0.0000 H   0  0  0  0  0  0  0  0  0  0  0  0
    9.6704    4.4529    0.0000 H   0  0  0  0  0  0  0  0  0  0  0  0
   10.2490    1.7073    0.0000 H   0  0  0  0  0  0  0  0  0  0  0  0
    6.4388    4.6570    0.0000 H   0  0  0  0  0  0  0  0  0  0  0  0
   10.7523    3.2472    0.0000 H   0  0  0  0  0  0  0  0  0  0  0  0
  1 13  2  0  0  0  0
  2 19  1  0  0  0  0
  2 48  1  0  0  0  0
  3  8  1  0  0  0  0
  3 10  1  0  0  0  0
  3 13  1  0  0  0  0
  4 13  1  0  0  0  0
  4 15  1  0  0  0  0
  4 36  1  0  0  0  0
  5 16  1  0  0  0  0
  5 17  1  0  0  0  0
  5 38  1  0  0  0  0
  6 17  1  0  0  0  0
  6 24  2  0  0  0  0
  7  8  1  0  0  0  0
  7  9  1  0  0  0  0
  7 28  1  0  0  0  0
  7 29  1  0  0  0  0
  8 30  1  0  0  0  0
  8 31  1  0  0  0  0
  9 11  2  0  0  0  0
  9 12  1  0  0  0  0
 10 11  1  0  0  0  0
 10 32  1  0  0  0  0
 10 33  1  0  0  0  0
 11 34  1  0  0  0  0
 12 14  1  0  0  0  0
 12 16  2  0  0  0  0
 14 17  2  0  0  0  0
 14 20  1  0  0  0  0
 15 18  1  0  0  0  0
 15 19  1  0  0  0  0
 15 35  1  0  0  0  0
 16 37  1  0  0  0  0
 18 21  2  0  0  0  0
 18 22  1  0  0  0  0
 19 39  1  0  0  0  0
 19 40  1  0  0  0  0
 20 23  2  0  0  0  0
 20 41  1  0  0  0  0
 21 25  1  0  0  0  0
 21 42  1  0  0  0  0
 22 26  2  0  0  0  0
 22 43  1  0  0  0  0
 23 24  1  0  0  0  0
 23 44  1  0  0  0  0
 24 45  1  0  0  0  0
 25 27  2  0  0  0  0
 25 46  1  0  0  0  0
 26 27  1  0  0  0  0
 26 47  1  0  0  0  0
 27 49  1  0  0  0  0
M  END
> <PUBCHEM_COMPOUND_CID>
49830283

> <PUBCHEM_COMPOUND_CANONICALIZED>
1

> <PUBCHEM_CACTVS_COMPLEXITY>
546

> <PUBCHEM_CACTVS_HBOND_ACCEPTOR>
3

> <PUBCHEM_CACTVS_HBOND_DONOR>
3

> <PUBCHEM_CACTVS_ROTATABLE_BOND>
4

> <PUBCHEM_CACTVS_SUBSKEYS>
AAADceB7sAAAAAAAAAAAAAAAAAAAAWAAAAA8QIAAAAAAAFgB/AAAHgAQCAAADCjhmwY9sN/JkgCoAjJndACCgCmxAqAJ2aA4ZJiKOOLAmZGEYAhs1gPYyCeQwKAOgAAAAAAAAAAAAAAAAAAAAAAAAAAAAA==

> <PUBCHEM_IUPAC_OPENEYE_NAME>
N-(2-hydroxy-1-phenyl-ethyl)-4-(1H-pyrrolo[2,3-b]pyridin-3-yl)-3,6-dihydro-2H-pyridine-1-carboxamide

> <PUBCHEM_IUPAC_CAS_NAME>
N-(2-hydroxy-1-phenylethyl)-4-(1H-pyrrolo[2,3-b]pyridin-3-yl)-3,6-dihydro-2H-pyridine-1-carboxamide

> <PUBCHEM_IUPAC_NAME_MARKUP>
<I>N</I>-(2-hydroxy-1-phenylethyl)-4-(1<I>H</I>-pyrrolo[2,3-b]pyridin-3-yl)-3,6-dihydro-2<I>H</I>-pyridine-1-carboxamide

> <PUBCHEM_IUPAC_NAME>
N-(2-hydroxy-1-phenylethyl)-4-(1H-pyrrolo[2,3-b]pyridin-3-yl)-3,6-dihydro-2H-pyridine-1-carboxamide

> <PUBCHEM_IUPAC_SYSTEMATIC_NAME>
N-(2-oxidanyl-1-phenyl-ethyl)-4-(1H-pyrrolo[2,3-b]pyridin-3-yl)-3,6-dihydro-2H-pyridine-1-carboxamide

> <PUBCHEM_IUPAC_TRADITIONAL_NAME>
N-(2-hydroxy-1-phenyl-ethyl)-4-(1H-pyrrolo[2,3-b]pyridin-3-yl)-3,6-dihydro-2H-pyridine-1-carboxamide

> <PUBCHEM_IUPAC_INCHI>
InChI=1S/C21H22N4O2/c26-14-19(16-5-2-1-3-6-16)24-21(27)25-11-8-15(9-12-25)18-13-23-20-17(18)7-4-10-22-20/h1-8,10,13,19,26H,9,11-12,14H2,(H,22,23)(H,24,27)

> <PUBCHEM_IUPAC_INCHIKEY>
OEEGUWWPGAZRIJ-UHFFFAOYSA-N

> <PUBCHEM_XLOGP3_AA>
1.7

> <PUBCHEM_EXACT_MASS>
362.17427596

> <PUBCHEM_MOLECULAR_FORMULA>
C21H22N4O2

> <PUBCHEM_MOLECULAR_WEIGHT>
362.4

> <PUBCHEM_SMILES>
C1CN(CC=C1C2=CNC3=C2C=CC=N3)C(=O)NC(CO)C4=CC=CC=C4

> <PUBCHEM_OPENEYE_CAN_SMILES>
C1CN(CC=C1C2=CNC3=C2C=CC=N3)C(=O)NC(CO)C4=CC=CC=C4

> <PUBCHEM_OPENEYE_ISO_SMILES>
C1CN(CC=C1C2=CNC3=C2C=CC=N3)C(=O)NC(CO)C4=CC=CC=C4

> <PUBCHEM_CACTVS_TPSA>
81.3

> <PUBCHEM_MONOISOTOPIC_WEIGHT>
362.17427596

> <PUBCHEM_TOTAL_CHARGE>
0

> <PUBCHEM_HEAVY_ATOM_COUNT>
27

> <PUBCHEM_ATOM_DEF_STEREO_COUNT>
0

> <PUBCHEM_ATOM_UDEF_STEREO_COUNT>
1

> <PUBCHEM_BOND_DEF_STEREO_COUNT>
0

> <PUBCHEM_BOND_UDEF_STEREO_COUNT>
0

> <PUBCHEM_ISOTOPIC_ATOM_COUNT>
0

> <PUBCHEM_COMPONENT_COUNT>
1

> <PUBCHEM_CACTVS_TAUTO_COUNT>
-1

> <PUBCHEM_COORDINATE_TYPE>
1
5
255

> <PUBCHEM_BONDANNOTATIONS>
12  14  8
12  16  8
14  17  8
14  20  8
15  19  3
18  21  8
18  22  8
20  23  8
21  25  8
22  26  8
23  24  8
25  27  8
26  27  8
5  16  8
5  17  8
6  17  8
6  24  8

$$$$
