49830284
  -OEChem-03202503222D

 38 40  0     0  0  0  0  0  0999 V2000
    3.7320    0.8689    0.0000 N   0  0  0  0  0  0  0  0  0  0  0  0
    5.5443   -1.9358    0.0000 N   0  0  0  0  0  0  0  0  0  0  0  0
    2.8660   -0.6311    0.0000 N   0  0  0  0  0  0  0  0  0  0  0  0
    3.7320   -2.1311    0.0000 N   0  0  0  0  0  0  0  0  0  0  0  0
    2.8660    1.3689    0.0000 C   0  0  0  0  0  0  0  0  0  0  0  0
    4.5981   -0.6311    0.0000 C   0  0  0  0  0  0  0  0  0  0  0  0
    3.7320   -0.1311    0.0000 C   0  0  0  0  0  0  0  0  0  0  0  0
    2.0000    1.8689    0.0000 C   0  0  0  0  0  0  0  0  0  0  0  0
    3.3660    2.2349    0.0000 C   0  0  0  0  0  0  0  0  0  0  0  0
    2.3660    0.5029    0.0000 C   0  0  0  0  0  0  0  0  0  0  0  0
    5.5443   -0.3264    0.0000 C   0  0  0  0  0  0  0  0  0  0  0  0
    4.5981   -1.6311    0.0000 C   0  0  0  0  0  0  0  0  0  0  0  0
    6.1279   -1.1311    0.0000 C   0  0  0  0  0  0  0  0  0  0  0  0
    5.8550    0.6241    0.0000 C   0  0  0  0  0  0  0  0  0  0  0  0
    2.8660   -1.6311    0.0000 C   0  0  0  0  0  0  0  0  0  0  0  0
    6.8335    0.8304    0.0000 C   0  0  0  0  0  0  0  0  0  0  0  0
    5.1871    1.3684    0.0000 C   0  0  0  0  0  0  0  0  0  0  0  0
    7.1441    1.7809    0.0000 C   0  0  0  0  0  0  0  0  0  0  0  0
    5.4978    2.3190    0.0000 C   0  0  0  0  0  0  0  0  0  0  0  0
    6.4763    2.5252    0.0000 C   0  0  0  0  0  0  0  0  0  0  0  0
    4.2690    1.1789    0.0000 H   0  0  0  0  0  0  0  0  0  0  0  0
    2.3100    2.4058    0.0000 H   0  0  0  0  0  0  0  0  0  0  0  0
    1.4631    2.1789    0.0000 H   0  0  0  0  0  0  0  0  0  0  0  0
    1.6900    1.3319    0.0000 H   0  0  0  0  0  0  0  0  0  0  0  0
    3.9030    1.9249    0.0000 H   0  0  0  0  0  0  0  0  0  0  0  0
    3.6760    2.7718    0.0000 H   0  0  0  0  0  0  0  0  0  0  0  0
    2.8291    2.5449    0.0000 H   0  0  0  0  0  0  0  0  0  0  0  0
    1.8291    0.8129    0.0000 H   0  0  0  0  0  0  0  0  0  0  0  0
    2.0560   -0.0341    0.0000 H   0  0  0  0  0  0  0  0  0  0  0  0
    2.9030    0.1929    0.0000 H   0  0  0  0  0  0  0  0  0  0  0  0
    6.7479   -1.1311    0.0000 H   0  0  0  0  0  0  0  0  0  0  0  0
    5.7369   -2.5252    0.0000 H   0  0  0  0  0  0  0  0  0  0  0  0
    2.3291   -1.9411    0.0000 H   0  0  0  0  0  0  0  0  0  0  0  0
    7.2475    0.3689    0.0000 H   0  0  0  0  0  0  0  0  0  0  0  0
    4.5804    1.2406    0.0000 H   0  0  0  0  0  0  0  0  0  0  0  0
    7.7508    1.9087    0.0000 H   0  0  0  0  0  0  0  0  0  0  0  0
    5.0837    2.7804    0.0000 H   0  0  0  0  0  0  0  0  0  0  0  0
    6.6689    3.1145    0.0000 H   0  0  0  0  0  0  0  0  0  0  0  0
  1  5  1  0  0  0  0
  1  7  1  0  0  0  0
  1 21  1  0  0  0  0
  2 12  1  0  0  0  0
  2 13  1  0  0  0  0
  2 32  1  0  0  0  0
  3  7  2  0  0  0  0
  3 15  1  0  0  0  0
  4 12  1  0  0  0  0
  4 15  2  0  0  0  0
  5  8  1  0  0  0  0
  5  9  1  0  0  0  0
  5 10  1  0  0  0  0
  6  7  1  0  0  0  0
  6 11  1  0  0  0  0
  6 12  2  0  0  0  0
  8 22  1  0  0  0  0
  8 23  1  0  0  0  0
  8 24  1  0  0  0  0
  9 25  1  0  0  0  0
  9 26  1  0  0  0  0
  9 27  1  0  0  0  0
 10 28  1  0  0  0  0
 10 29  1  0  0  0  0
 10 30  1  0  0  0  0
 11 13  2  0  0  0  0
 11 14  1  0  0  0  0
 13 31  1  0  0  0  0
 14 16  2  0  0  0  0
 14 17  1  0  0  0  0
 15 33  1  0  0  0  0
 16 18  1  0  0  0  0
 16 34  1  0  0  0  0
 17 19  2  0  0  0  0
 17 35  1  0  0  0  0
 18 20  2  0  0  0  0
 18 36  1  0  0  0  0
 19 20  1  0  0  0  0
 19 37  1  0  0  0  0
 20 38  1  0  0  0  0
M  END
> <PUBCHEM_COMPOUND_CID>
49830284

> <PUBCHEM_COMPOUND_CANONICALIZED>
1

> <PUBCHEM_CACTVS_COMPLEXITY>
319

> <PUBCHEM_CACTVS_HBOND_ACCEPTOR>
3

> <PUBCHEM_CACTVS_HBOND_DONOR>
2

> <PUBCHEM_CACTVS_ROTATABLE_BOND>
3

> <PUBCHEM_CACTVS_SUBSKEYS>
AAADceB7gAAAAAAAAAAAAAAAAAAAAWAAAAA8QAAAAAAAAFgB/AAAHAAQAAAADIjBGwQ/sN7JkACgAjJnZACCgCmxAKAJ2aAoRJiIKGLA2dGEJAhokALIyCcQgMAOgAAAAAAAAAAAAAAAAAAAAAAAAAAAAA==

> <PUBCHEM_IUPAC_OPENEYE_NAME>
N-tert-butyl-5-phenyl-7H-pyrrolo[2,3-d]pyrimidin-4-amine

> <PUBCHEM_IUPAC_CAS_NAME>
N-tert-butyl-5-phenyl-7H-pyrrolo[2,3-d]pyrimidin-4-amine

> <PUBCHEM_IUPAC_NAME_MARKUP>
<I>N</I>-<I>tert</I>-butyl-5-phenyl-7<I>H</I>-pyrrolo[2,3-d]pyrimidin-4-amine

> <PUBCHEM_IUPAC_NAME>
N-tert-butyl-5-phenyl-7H-pyrrolo[2,3-d]pyrimidin-4-amine

> <PUBCHEM_IUPAC_SYSTEMATIC_NAME>
N-tert-butyl-5-phenyl-7H-pyrrolo[2,3-d]pyrimidin-4-amine

> <PUBCHEM_IUPAC_TRADITIONAL_NAME>
tert-butyl-(5-phenyl-7H-pyrrolo[2,3-d]pyrimidin-4-yl)amine

> <PUBCHEM_IUPAC_INCHI>
InChI=1S/C16H18N4/c1-16(2,3)20-15-13-12(11-7-5-4-6-8-11)9-17-14(13)18-10-19-15/h4-10H,1-3H3,(H2,17,18,19,20)

> <PUBCHEM_IUPAC_INCHIKEY>
ZDPGLLQANLROFM-UHFFFAOYSA-N

> <PUBCHEM_XLOGP3_AA>
3.6

> <PUBCHEM_EXACT_MASS>
266.153146591

> <PUBCHEM_MOLECULAR_FORMULA>
C16H18N4

> <PUBCHEM_MOLECULAR_WEIGHT>
266.34

> <PUBCHEM_SMILES>
CC(C)(C)NC1=NC=NC2=C1C(=CN2)C3=CC=CC=C3

> <PUBCHEM_OPENEYE_CAN_SMILES>
CC(C)(C)NC1=NC=NC2=C1C(=CN2)C3=CC=CC=C3

> <PUBCHEM_OPENEYE_ISO_SMILES>
CC(C)(C)NC1=NC=NC2=C1C(=CN2)C3=CC=CC=C3

> <PUBCHEM_CACTVS_TPSA>
53.6

> <PUBCHEM_MONOISOTOPIC_WEIGHT>
266.153146591

> <PUBCHEM_TOTAL_CHARGE>
0

> <PUBCHEM_HEAVY_ATOM_COUNT>
20

> <PUBCHEM_ATOM_DEF_STEREO_COUNT>
0

> <PUBCHEM_ATOM_UDEF_STEREO_COUNT>
0

> <PUBCHEM_BOND_DEF_STEREO_COUNT>
0

> <PUBCHEM_BOND_UDEF_STEREO_COUNT>
0

> <PUBCHEM_ISOTOPIC_ATOM_COUNT>
0

> <PUBCHEM_COMPONENT_COUNT>
1

> <PUBCHEM_CACTVS_TAUTO_COUNT>
-1

> <PUBCHEM_COORDINATE_TYPE>
1
5
255

> <PUBCHEM_BONDANNOTATIONS>
11  13  8
14  16  8
14  17  8
16  18  8
17  19  8
18  20  8
19  20  8
2  12  8
2  13  8
3  15  8
3  7  8
4  12  8
4  15  8
6  11  8
6  12  8
6  7  8

$$$$
