9931954
  -OEChem-03192523252D

 42 45  0     0  0  0  0  0  0999 V2000
   11.6378   -2.2441    0.0000 F   0  0  0  0  0  0  0  0  0  0  0  0
   11.2071    1.1262    0.0000 O   0  0  0  0  0  0  0  0  0  0  0  0
    8.0363   -1.6863    0.0000 N   0  0  0  0  0  0  0  0  0  0  0  0
    9.6086    1.6855    0.0000 N   0  0  0  0  0  0  0  0  0  0  0  0
    2.9944   -1.2057    0.0000 N   0  0  0  0  0  0  0  0  0  0  0  0
    8.2077   -0.0713    0.0000 C   0  0  0  0  0  0  0  0  0  0  0  0
    9.1086   -0.5051    0.0000 C   0  0  0  0  0  0  0  0  0  0  0  0
    7.9852    0.9037    0.0000 C   0  0  0  0  0  0  0  0  0  0  0  0
    7.5607   -0.8192    0.0000 C   0  0  0  0  0  0  0  0  0  0  0  0
    9.0148   -1.5425    0.0000 C   0  0  0  0  0  0  0  0  0  0  0  0
   10.0096   -0.0713    0.0000 C   0  0  0  0  0  0  0  0  0  0  0  0
    8.6086    1.6855    0.0000 C   0  0  0  0  0  0  0  0  0  0  0  0
    6.5662   -0.7137    0.0000 C   0  0  0  0  0  0  0  0  0  0  0  0
   10.2321    0.9037    0.0000 C   0  0  0  0  0  0  0  0  0  0  0  0
    9.8709   -2.1359    0.0000 C   0  0  0  0  0  0  0  0  0  0  0  0
   10.8792   -0.6447    0.0000 C   0  0  0  0  0  0  0  0  0  0  0  0
   10.8094   -1.6840    0.0000 C   0  0  0  0  0  0  0  0  0  0  0  0
    5.9777   -1.5222    0.0000 C   0  0  0  0  0  0  0  0  0  0  0  0
    6.1604    0.2002    0.0000 C   0  0  0  0  0  0  0  0  0  0  0  0
    4.5774   -0.5027    0.0000 C   0  0  0  0  0  0  0  0  0  0  0  0
    4.9833   -1.4167    0.0000 C   0  0  0  0  0  0  0  0  0  0  0  0
    5.1660    0.3057    0.0000 C   0  0  0  0  0  0  0  0  0  0  0  0
    3.5830   -0.3972    0.0000 C   0  0  0  0  0  0  0  0  0  0  0  0
    2.0000   -1.1002    0.0000 C   0  0  0  0  0  0  0  0  0  0  0  0
    7.5986    1.3884    0.0000 H   0  0  0  0  0  0  0  0  0  0  0  0
    7.4266    0.6347    0.0000 H   0  0  0  0  0  0  0  0  0  0  0  0
    7.7602   -2.2414    0.0000 H   0  0  0  0  0  0  0  0  0  0  0  0
    8.7466    2.2900    0.0000 H   0  0  0  0  0  0  0  0  0  0  0  0
    8.0500    1.9545    0.0000 H   0  0  0  0  0  0  0  0  0  0  0  0
    9.8776    2.2441    0.0000 H   0  0  0  0  0  0  0  0  0  0  0  0
    9.8222   -2.7540    0.0000 H   0  0  0  0  0  0  0  0  0  0  0  0
   11.4346   -0.3692    0.0000 H   0  0  0  0  0  0  0  0  0  0  0  0
    6.2293   -2.0888    0.0000 H   0  0  0  0  0  0  0  0  0  0  0  0
    6.5253    0.7015    0.0000 H   0  0  0  0  0  0  0  0  0  0  0  0
    4.6183   -1.9179    0.0000 H   0  0  0  0  0  0  0  0  0  0  0  0
    4.9144    0.8724    0.0000 H   0  0  0  0  0  0  0  0  0  0  0  0
    3.7545    0.1986    0.0000 H   0  0  0  0  0  0  0  0  0  0  0  0
    3.0260   -0.1249    0.0000 H   0  0  0  0  0  0  0  0  0  0  0  0
    3.2460   -1.7723    0.0000 H   0  0  0  0  0  0  0  0  0  0  0  0
    2.0654   -0.4836    0.0000 H   0  0  0  0  0  0  0  0  0  0  0  0
    1.3835   -1.0348    0.0000 H   0  0  0  0  0  0  0  0  0  0  0  0
    1.9346   -1.7167    0.0000 H   0  0  0  0  0  0  0  0  0  0  0  0
  1 17  1  0  0  0  0
  2 14  2  0  0  0  0
  3  9  1  0  0  0  0
  3 10  1  0  0  0  0
  3 27  1  0  0  0  0
  4 12  1  0  0  0  0
  4 14  1  0  0  0  0
  4 30  1  0  0  0  0
  5 23  1  0  0  0  0
  5 24  1  0  0  0  0
  5 39  1  0  0  0  0
  6  7  1  0  0  0  0
  6  8  1  0  0  0  0
  6  9  2  0  0  0  0
  7 10  1  0  0  0  0
  7 11  2  0  0  0  0
  8 12  1  0  0  0  0
  8 25  1  0  0  0  0
  8 26  1  0  0  0  0
  9 13  1  0  0  0  0
 10 15  2  0  0  0  0
 11 14  1  0  0  0  0
 11 16  1  0  0  0  0
 12 28  1  0  0  0  0
 12 29  1  0  0  0  0
 13 18  2  0  0  0  0
 13 19  1  0  0  0  0
 15 17  1  0  0  0  0
 15 31  1  0  0  0  0
 16 17  2  0  0  0  0
 16 32  1  0  0  0  0
 18 21  1  0  0  0  0
 18 33  1  0  0  0  0
 19 22  2  0  0  0  0
 19 34  1  0  0  0  0
 20 21  2  0  0  0  0
 20 22  1  0  0  0  0
 20 23  1  0  0  0  0
 21 35  1  0  0  0  0
 22 36  1  0  0  0  0
 23 37  1  0  0  0  0
 23 38  1  0  0  0  0
 24 40  1  0  0  0  0
 24 41  1  0  0  0  0
 24 42  1  0  0  0  0
M  END
> <PUBCHEM_COMPOUND_CID>
9931954

> <PUBCHEM_COMPOUND_CANONICALIZED>
1

> <PUBCHEM_CACTVS_COMPLEXITY>
466

> <PUBCHEM_CACTVS_HBOND_ACCEPTOR>
3

> <PUBCHEM_CACTVS_HBOND_DONOR>
3

> <PUBCHEM_CACTVS_ROTATABLE_BOND>
3

> <PUBCHEM_CACTVS_SUBSKEYS>
AAADceB7IQAAAAAAAAAAAAAAAAAAAWAAAAAwYAAABYAAAFix9AAAHwAQAAAADAjBngwywPLJkACoAyVyVACCgCAlAiAImaE4ZNgIIPLAlZGEIQhglgDIyYccicCewAAAQAASAACAAACAACQAAAAAAAAAAA==

> <PUBCHEM_IUPAC_OPENEYE_NAME>
6-fluoro-2-[4-(methylaminomethyl)phenyl]-3,10-diazatricyclo[6.4.1.04,13]trideca-1,4,6,8(13)-tetraen-9-one

> <PUBCHEM_IUPAC_CAS_NAME>
6-fluoro-2-[4-(methylaminomethyl)phenyl]-3,10-diazatricyclo[6.4.1.04,13]trideca-1,4,6,8(13)-tetraen-9-one

> <PUBCHEM_IUPAC_NAME_MARKUP>
6-fluoro-2-[4-(methylaminomethyl)phenyl]-3,10-diazatricyclo[6.4.1.0<SUP>4,13</SUP>]trideca-1,4,6,8(13)-tetraen-9-one

> <PUBCHEM_IUPAC_NAME>
6-fluoro-2-[4-(methylaminomethyl)phenyl]-3,10-diazatricyclo[6.4.1.04,13]trideca-1,4,6,8(13)-tetraen-9-one

> <PUBCHEM_IUPAC_SYSTEMATIC_NAME>
6-fluoranyl-2-[4-(methylaminomethyl)phenyl]-3,10-diazatricyclo[6.4.1.04,13]trideca-1,4,6,8(13)-tetraen-9-one

> <PUBCHEM_IUPAC_TRADITIONAL_NAME>
6-fluoro-2-[4-(methylaminomethyl)phenyl]-3,10-diazatricyclo[6.4.1.04,13]trideca-1,4,6,8(13)-tetraen-9-one

> <PUBCHEM_IUPAC_INCHI>
InChI=1S/C19H18FN3O/c1-21-10-11-2-4-12(5-3-11)18-14-6-7-22-19(24)15-8-13(20)9-16(23-18)17(14)15/h2-5,8-9,21,23H,6-7,10H2,1H3,(H,22,24)

> <PUBCHEM_IUPAC_INCHIKEY>
HMABYWSNWIZPAG-UHFFFAOYSA-N

> <PUBCHEM_XLOGP3_AA>
2.5

> <PUBCHEM_EXACT_MASS>
323.14339037

> <PUBCHEM_MOLECULAR_FORMULA>
C19H18FN3O

> <PUBCHEM_MOLECULAR_WEIGHT>
323.4

> <PUBCHEM_SMILES>
CNCC1=CC=C(C=C1)C2=C3CCNC(=O)C4=C3C(=CC(=C4)F)N2

> <PUBCHEM_OPENEYE_CAN_SMILES>
CNCC1=CC=C(C=C1)C2=C3CCNC(=O)C4=C3C(=CC(=C4)F)N2

> <PUBCHEM_OPENEYE_ISO_SMILES>
CNCC1=CC=C(C=C1)C2=C3CCNC(=O)C4=C3C(=CC(=C4)F)N2

> <PUBCHEM_CACTVS_TPSA>
56.9

> <PUBCHEM_MONOISOTOPIC_WEIGHT>
323.14339037

> <PUBCHEM_TOTAL_CHARGE>
0

> <PUBCHEM_HEAVY_ATOM_COUNT>
24

> <PUBCHEM_ATOM_DEF_STEREO_COUNT>
0

> <PUBCHEM_ATOM_UDEF_STEREO_COUNT>
0

> <PUBCHEM_BOND_DEF_STEREO_COUNT>
0

> <PUBCHEM_BOND_UDEF_STEREO_COUNT>
0

> <PUBCHEM_ISOTOPIC_ATOM_COUNT>
0

> <PUBCHEM_COMPONENT_COUNT>
1

> <PUBCHEM_CACTVS_TAUTO_COUNT>
-1

> <PUBCHEM_COORDINATE_TYPE>
1
5
255

> <PUBCHEM_BONDANNOTATIONS>
10  15  8
11  16  8
13  18  8
13  19  8
15  17  8
16  17  8
18  21  8
19  22  8
20  21  8
20  22  8
3  10  8
3  9  8
6  7  8
6  9  8
7  10  8
7  11  8

$$$$
