5328125
  -OEChem-03202507022D

 57 59  0     0  0  0  0  0  0999 V2000
    5.9393   -1.9095    0.0000 O   0  0  0  0  0  0  0  0  0  0  0  0
    4.3116   -2.5019    0.0000 N   0  0  0  0  0  0  0  0  0  0  0  0
    4.6123   -0.7962    0.0000 N   0  0  0  0  0  0  0  0  0  0  0  0
    6.1212   -0.5302    0.0000 N   0  0  0  0  0  0  0  0  0  0  0  0
    7.8812   -0.5648    0.0000 N   0  0  0  0  0  0  0  0  0  0  0  0
    8.7872    0.9907    0.0000 N   0  0  0  0  0  0  0  0  0  0  0  0
    9.6513   -0.5543    0.0000 N   0  0  0  0  0  0  0  0  0  0  0  0
    4.6537   -3.4416    0.0000 C   0  0  0  0  0  0  0  0  0  0  0  0
    4.6124    1.7359    0.0000 C   0  0  0  0  0  0  0  0  0  0  0  0
    3.6276    1.5623    0.0000 C   0  0  0  0  0  0  0  0  0  0  0  0
    4.9544    2.6756    0.0000 C   0  0  0  0  0  0  0  0  0  0  0  0
    5.2552    0.9698    0.0000 C   0  0  0  0  0  0  0  0  0  0  0  0
    2.9848    2.3283    0.0000 C   0  0  0  0  0  0  0  0  0  0  0  0
    4.3116    3.4416    0.0000 C   0  0  0  0  0  0  0  0  0  0  0  0
    4.9957   -4.3813    0.0000 C   0  0  0  0  0  0  0  0  0  0  0  0
    3.7139   -3.7836    0.0000 C   0  0  0  0  0  0  0  0  0  0  0  0
    5.5934   -3.0996    0.0000 C   0  0  0  0  0  0  0  0  0  0  0  0
    5.2552   -0.0302    0.0000 C   0  0  0  0  0  0  0  0  0  0  0  0
    3.3268    3.2680    0.0000 C   0  0  0  0  0  0  0  0  0  0  0  0
    6.1212    1.4699    0.0000 C   0  0  0  0  0  0  0  0  0  0  0  0
    3.2855    0.6226    0.0000 C   0  0  0  0  0  0  0  0  0  0  0  0
    5.9392    2.8492    0.0000 C   0  0  0  0  0  0  0  0  0  0  0  0
    4.9544   -1.7359    0.0000 C   0  0  0  0  0  0  0  0  0  0  0  0
    6.9872    0.9698    0.0000 C   0  0  0  0  0  0  0  0  0  0  0  0
    2.0000    2.1547    0.0000 C   0  0  0  0  0  0  0  0  0  0  0  0
    4.6536    4.3813    0.0000 C   0  0  0  0  0  0  0  0  0  0  0  0
    6.9872   -0.0302    0.0000 C   0  0  0  0  0  0  0  0  0  0  0  0
    7.8812    1.5045    0.0000 C   0  0  0  0  0  0  0  0  0  0  0  0
    8.7872   -0.0510    0.0000 C   0  0  0  0  0  0  0  0  0  0  0  0
    3.7010   -2.3943    0.0000 H   0  0  0  0  0  0  0  0  0  0  0  0
    4.4131   -4.5934    0.0000 H   0  0  0  0  0  0  0  0  0  0  0  0
    5.2078   -4.9639    0.0000 H   0  0  0  0  0  0  0  0  0  0  0  0
    5.5783   -4.1693    0.0000 H   0  0  0  0  0  0  0  0  0  0  0  0
    3.5019   -3.2010    0.0000 H   0  0  0  0  0  0  0  0  0  0  0  0
    3.1313   -3.9957    0.0000 H   0  0  0  0  0  0  0  0  0  0  0  0
    3.9260   -4.3663    0.0000 H   0  0  0  0  0  0  0  0  0  0  0  0
    5.8054   -3.6822    0.0000 H   0  0  0  0  0  0  0  0  0  0  0  0
    6.1760   -2.8876    0.0000 H   0  0  0  0  0  0  0  0  0  0  0  0
    5.3813   -2.5170    0.0000 H   0  0  0  0  0  0  0  0  0  0  0  0
    2.9283    3.7429    0.0000 H   0  0  0  0  0  0  0  0  0  0  0  0
    6.1212    2.0899    0.0000 H   0  0  0  0  0  0  0  0  0  0  0  0
    2.7029    0.8347    0.0000 H   0  0  0  0  0  0  0  0  0  0  0  0
    3.0735    0.0400    0.0000 H   0  0  0  0  0  0  0  0  0  0  0  0
    3.8681    0.4105    0.0000 H   0  0  0  0  0  0  0  0  0  0  0  0
    6.0469    2.2386    0.0000 H   0  0  0  0  0  0  0  0  0  0  0  0
    6.5498    2.9569    0.0000 H   0  0  0  0  0  0  0  0  0  0  0  0
    5.8315    3.4598    0.0000 H   0  0  0  0  0  0  0  0  0  0  0  0
    4.0018   -0.6885    0.0000 H   0  0  0  0  0  0  0  0  0  0  0  0
    1.8924    2.7653    0.0000 H   0  0  0  0  0  0  0  0  0  0  0  0
    1.3894    2.0471    0.0000 H   0  0  0  0  0  0  0  0  0  0  0  0
    2.1076    1.5441    0.0000 H   0  0  0  0  0  0  0  0  0  0  0  0
    5.2362    4.1693    0.0000 H   0  0  0  0  0  0  0  0  0  0  0  0
    4.8657    4.9639    0.0000 H   0  0  0  0  0  0  0  0  0  0  0  0
    4.0710    4.5934    0.0000 H   0  0  0  0  0  0  0  0  0  0  0  0
    7.8740    2.1245    0.0000 H   0  0  0  0  0  0  0  0  0  0  0  0
   10.1894   -0.2464    0.0000 H   0  0  0  0  0  0  0  0  0  0  0  0
    9.6489   -1.1743    0.0000 H   0  0  0  0  0  0  0  0  0  0  0  0
  1 23  2  0  0  0  0
  2  8  1  0  0  0  0
  2 23  1  0  0  0  0
  2 30  1  0  0  0  0
  3 18  1  0  0  0  0
  3 23  1  0  0  0  0
  3 48  1  0  0  0  0
  4 18  1  0  0  0  0
  4 27  2  0  0  0  0
  5 27  1  0  0  0  0
  5 29  2  0  0  0  0
  6 28  2  0  0  0  0
  6 29  1  0  0  0  0
  7 29  1  0  0  0  0
  7 56  1  0  0  0  0
  7 57  1  0  0  0  0
  8 15  1  0  0  0  0
  8 16  1  0  0  0  0
  8 17  1  0  0  0  0
  9 10  2  0  0  0  0
  9 11  1  0  0  0  0
  9 12  1  0  0  0  0
 10 13  1  0  0  0  0
 10 21  1  0  0  0  0
 11 14  2  0  0  0  0
 11 22  1  0  0  0  0
 12 18  2  0  0  0  0
 12 20  1  0  0  0  0
 13 19  2  0  0  0  0
 13 25  1  0  0  0  0
 14 19  1  0  0  0  0
 14 26  1  0  0  0  0
 15 31  1  0  0  0  0
 15 32  1  0  0  0  0
 15 33  1  0  0  0  0
 16 34  1  0  0  0  0
 16 35  1  0  0  0  0
 16 36  1  0  0  0  0
 17 37  1  0  0  0  0
 17 38  1  0  0  0  0
 17 39  1  0  0  0  0
 19 40  1  0  0  0  0
 20 24  2  0  0  0  0
 20 41  1  0  0  0  0
 21 42  1  0  0  0  0
 21 43  1  0  0  0  0
 21 44  1  0  0  0  0
 22 45  1  0  0  0  0
 22 46  1  0  0  0  0
 22 47  1  0  0  0  0
 24 27  1  0  0  0  0
 24 28  1  0  0  0  0
 25 49  1  0  0  0  0
 25 50  1  0  0  0  0
 25 51  1  0  0  0  0
 26 52  1  0  0  0  0
 26 53  1  0  0  0  0
 26 54  1  0  0  0  0
 28 55  1  0  0  0  0
M  END
> <PUBCHEM_COMPOUND_CID>
5328125

> <PUBCHEM_COMPOUND_CANONICALIZED>
1

> <PUBCHEM_CACTVS_COMPLEXITY>
564

> <PUBCHEM_CACTVS_HBOND_ACCEPTOR>
5

> <PUBCHEM_CACTVS_HBOND_DONOR>
3

> <PUBCHEM_CACTVS_ROTATABLE_BOND>
3

> <PUBCHEM_CACTVS_SUBSKEYS>
AAADceB7oAAAAAAAAAAAAAAAAAAAAAAAAAA8WIAAAAAAAACx/AAAHgAQAAAADIjBGwQ/sN7IEACoAjJndACCgCkxAKAB2CAoRJiIKOLA2dGEJAholQLIyCcQgMAOwAACAAAQAACAAAQAACAAAAAAAAAAAA==

> <PUBCHEM_IUPAC_OPENEYE_NAME>
1-[2-amino-6-(2,3,5,6-tetramethylphenyl)pyrido[2,3-d]pyrimidin-7-yl]-3-tert-butyl-urea

> <PUBCHEM_IUPAC_CAS_NAME>
1-[2-amino-6-(2,3,5,6-tetramethylphenyl)-7-pyrido[2,3-d]pyrimidinyl]-3-tert-butylurea

> <PUBCHEM_IUPAC_NAME_MARKUP>
1-[2-amino-6-(2,3,5,6-tetramethylphenyl)pyrido[2,3-d]pyrimidin-7-yl]-3-<I>tert</I>-butylurea

> <PUBCHEM_IUPAC_NAME>
1-[2-amino-6-(2,3,5,6-tetramethylphenyl)pyrido[2,3-d]pyrimidin-7-yl]-3-tert-butylurea

> <PUBCHEM_IUPAC_SYSTEMATIC_NAME>
1-[2-azanyl-6-(2,3,5,6-tetramethylphenyl)pyrido[2,3-d]pyrimidin-7-yl]-3-tert-butyl-urea

> <PUBCHEM_IUPAC_TRADITIONAL_NAME>
1-[2-amino-6-(2,3,5,6-tetramethylphenyl)pyrido[2,3-d]pyrimidin-7-yl]-3-tert-butyl-urea

> <PUBCHEM_IUPAC_INCHI>
InChI=1S/C22H28N6O/c1-11-8-12(2)14(4)17(13(11)3)16-9-15-10-24-20(23)26-18(15)25-19(16)27-21(29)28-22(5,6)7/h8-10H,1-7H3,(H4,23,24,25,26,27,28,29)

> <PUBCHEM_IUPAC_INCHIKEY>
NNYHIJGVHOAIGK-UHFFFAOYSA-N

> <PUBCHEM_XLOGP3_AA>
3.9

> <PUBCHEM_EXACT_MASS>
392.23245954

> <PUBCHEM_MOLECULAR_FORMULA>
C22H28N6O

> <PUBCHEM_MOLECULAR_WEIGHT>
392.5

> <PUBCHEM_SMILES>
CC1=CC(=C(C(=C1C)C2=C(N=C3C(=C2)C=NC(=N3)N)NC(=O)NC(C)(C)C)C)C

> <PUBCHEM_OPENEYE_CAN_SMILES>
CC1=CC(=C(C(=C1C)C2=C(N=C3C(=C2)C=NC(=N3)N)NC(=O)NC(C)(C)C)C)C

> <PUBCHEM_OPENEYE_ISO_SMILES>
CC1=CC(=C(C(=C1C)C2=C(N=C3C(=C2)C=NC(=N3)N)NC(=O)NC(C)(C)C)C)C

> <PUBCHEM_CACTVS_TPSA>
106

> <PUBCHEM_MONOISOTOPIC_WEIGHT>
392.23245954

> <PUBCHEM_TOTAL_CHARGE>
0

> <PUBCHEM_HEAVY_ATOM_COUNT>
29

> <PUBCHEM_ATOM_DEF_STEREO_COUNT>
0

> <PUBCHEM_ATOM_UDEF_STEREO_COUNT>
0

> <PUBCHEM_BOND_DEF_STEREO_COUNT>
0

> <PUBCHEM_BOND_UDEF_STEREO_COUNT>
0

> <PUBCHEM_ISOTOPIC_ATOM_COUNT>
0

> <PUBCHEM_COMPONENT_COUNT>
1

> <PUBCHEM_CACTVS_TAUTO_COUNT>
-1

> <PUBCHEM_COORDINATE_TYPE>
1
5
255

> <PUBCHEM_BONDANNOTATIONS>
10  13  8
11  14  8
12  18  8
12  20  8
13  19  8
14  19  8
20  24  8
24  27  8
24  28  8
4  18  8
4  27  8
5  27  8
5  29  8
6  28  8
6  29  8
9  10  8
9  11  8

$$$$
