11526238
  -OEChem-03202504402D

 63 66  0     1  0  0  0  0  0999 V2000
   12.7558   -3.5272    0.0000 Cl  0  0  0  0  0  0  0  0  0  0  0  0
   11.0354   -2.5072    0.0000 F   0  0  0  0  0  0  0  0  0  0  0  0
    8.2121   -1.8388    0.0000 O   0  0  0  0  0  0  0  0  0  0  0  0
    2.7071   -0.7962    0.0000 O   0  0  0  0  0  0  0  0  0  0  0  0
    7.5781    2.5272    0.0000 O   0  0  0  0  0  0  0  0  0  0  0  0
    5.3461   -0.6068    0.0000 N   0  0  0  0  0  0  0  0  0  0  0  0
    7.5781   -0.4728    0.0000 N   0  0  3  0  0  0  0  0  0  0  0  0
    6.7121   -2.7048    0.0000 N   0  0  0  0  0  0  0  0  0  0  0  0
   11.0701    2.5619    0.0000 N   0  0  0  0  0  0  0  0  0  0  0  0
   11.0586   -0.5074    0.0000 N   0  0  0  0  0  0  0  0  0  0  0  0
   11.9762    1.0064    0.0000 N   0  0  0  0  0  0  0  0  0  0  0  0
    6.7121   -0.9728    0.0000 C   0  0  0  0  0  0  0  0  0  0  0  0
    5.8461   -1.4728    0.0000 C   0  0  0  0  0  0  0  0  0  0  0  0
    6.2121   -0.1068    0.0000 C   0  0  0  0  0  0  0  0  0  0  0  0
    4.3801   -0.3479    0.0000 C   0  0  0  0  0  0  0  0  0  0  0  0
    7.2121   -1.8388    0.0000 C   0  0  0  0  0  0  0  0  0  0  0  0
    7.5781    0.5272    0.0000 C   0  0  0  0  0  0  0  0  0  0  0  0
    8.4441   -0.9728    0.0000 C   0  0  0  0  0  0  0  0  0  0  0  0
    3.6730   -1.0550    0.0000 C   0  0  0  0  0  0  0  0  0  0  0  0
    8.4441    1.0272    0.0000 C   0  0  0  0  0  0  0  0  0  0  0  0
    8.4441    2.0272    0.0000 C   0  0  0  0  0  0  0  0  0  0  0  0
    9.3102    0.5272    0.0000 C   0  0  0  0  0  0  0  0  0  0  0  0
   10.1762    1.0272    0.0000 C   0  0  0  0  0  0  0  0  0  0  0  0
    9.3102    2.5272    0.0000 C   0  0  0  0  0  0  0  0  0  0  0  0
   10.1762    2.0272    0.0000 C   0  0  0  0  0  0  0  0  0  0  0  0
    2.0000   -1.5033    0.0000 C   0  0  0  0  0  0  0  0  0  0  0  0
   11.0701    0.4926    0.0000 C   0  0  0  0  0  0  0  0  0  0  0  0
    7.5781    3.5272    0.0000 C   0  0  0  0  0  0  0  0  0  0  0  0
   11.9762    2.0480    0.0000 C   0  0  0  0  0  0  0  0  0  0  0  0
   11.9188   -1.0174    0.0000 C   0  0  0  0  0  0  0  0  0  0  0  0
   11.9072   -2.0173    0.0000 C   0  0  0  0  0  0  0  0  0  0  0  0
   12.7905   -0.5274    0.0000 C   0  0  0  0  0  0  0  0  0  0  0  0
   12.7674   -2.5273    0.0000 C   0  0  0  0  0  0  0  0  0  0  0  0
   13.6507   -1.0374    0.0000 C   0  0  0  0  0  0  0  0  0  0  0  0
   13.6391   -2.0373    0.0000 C   0  0  0  0  0  0  0  0  0  0  0  0
    5.3091   -1.7828    0.0000 H   0  0  0  0  0  0  0  0  0  0  0  0
    6.1561   -2.0097    0.0000 H   0  0  0  0  0  0  0  0  0  0  0  0
    6.7490    0.2032    0.0000 H   0  0  0  0  0  0  0  0  0  0  0  0
    5.9021    0.4302    0.0000 H   0  0  0  0  0  0  0  0  0  0  0  0
    4.6422    0.2140    0.0000 H   0  0  0  0  0  0  0  0  0  0  0  0
    3.8723    0.0077    0.0000 H   0  0  0  0  0  0  0  0  0  0  0  0
    7.3661    1.1098    0.0000 H   0  0  0  0  0  0  0  0  0  0  0  0
    6.9675    0.4195    0.0000 H   0  0  0  0  0  0  0  0  0  0  0  0
    8.1341   -1.5097    0.0000 H   0  0  0  0  0  0  0  0  0  0  0  0
    8.9811   -1.2828    0.0000 H   0  0  0  0  0  0  0  0  0  0  0  0
    8.7541   -0.4359    0.0000 H   0  0  0  0  0  0  0  0  0  0  0  0
    3.4110   -1.6170    0.0000 H   0  0  0  0  0  0  0  0  0  0  0  0
    4.1809   -1.4107    0.0000 H   0  0  0  0  0  0  0  0  0  0  0  0
    7.0221   -3.2418    0.0000 H   0  0  0  0  0  0  0  0  0  0  0  0
    6.0921   -2.7048    0.0000 H   0  0  0  0  0  0  0  0  0  0  0  0
    9.3102   -0.0928    0.0000 H   0  0  0  0  0  0  0  0  0  0  0  0
    9.3102    3.1472    0.0000 H   0  0  0  0  0  0  0  0  0  0  0  0
    1.5616   -1.0649    0.0000 H   0  0  0  0  0  0  0  0  0  0  0  0
    1.5616   -1.9418    0.0000 H   0  0  0  0  0  0  0  0  0  0  0  0
    2.4384   -1.9418    0.0000 H   0  0  0  0  0  0  0  0  0  0  0  0
    8.1981    3.5272    0.0000 H   0  0  0  0  0  0  0  0  0  0  0  0
    7.5781    4.1472    0.0000 H   0  0  0  0  0  0  0  0  0  0  0  0
    6.9581    3.5272    0.0000 H   0  0  0  0  0  0  0  0  0  0  0  0
   10.5181   -0.8112    0.0000 H   0  0  0  0  0  0  0  0  0  0  0  0
   12.5119    2.3601    0.0000 H   0  0  0  0  0  0  0  0  0  0  0  0
   12.7977    0.0925    0.0000 H   0  0  0  0  0  0  0  0  0  0  0  0
   14.1912   -0.7336    0.0000 H   0  0  0  0  0  0  0  0  0  0  0  0
   14.1724   -2.3535    0.0000 H   0  0  0  0  0  0  0  0  0  0  0  0
  1 33  1  0  0  0  0
  2 31  1  0  0  0  0
  3 16  2  0  0  0  0
  4 19  1  0  0  0  0
  4 26  1  0  0  0  0
  5 21  1  0  0  0  0
  5 28  1  0  0  0  0
  6 13  1  0  0  0  0
  6 14  1  0  0  0  0
  6 15  1  0  0  0  0
  7 12  1  0  0  0  0
  7 17  1  0  0  0  0
  7 18  1  0  0  0  0
  8 16  1  0  0  0  0
  8 49  1  0  0  0  0
  8 50  1  0  0  0  0
  9 25  1  0  0  0  0
  9 29  2  0  0  0  0
 10 27  1  0  0  0  0
 10 30  1  0  0  0  0
 10 59  1  0  0  0  0
 11 27  2  0  0  0  0
 11 29  1  0  0  0  0
 12 13  1  0  0  0  0
 12 14  1  0  0  0  0
 12 16  1  0  0  0  0
 13 36  1  0  0  0  0
 13 37  1  0  0  0  0
 14 38  1  0  0  0  0
 14 39  1  0  0  0  0
 15 19  1  0  0  0  0
 15 40  1  0  0  0  0
 15 41  1  0  0  0  0
 17 20  1  0  0  0  0
 17 42  1  0  0  0  0
 17 43  1  0  0  0  0
 18 44  1  0  0  0  0
 18 45  1  0  0  0  0
 18 46  1  0  0  0  0
 19 47  1  0  0  0  0
 19 48  1  0  0  0  0
 20 21  1  0  0  0  0
 20 22  2  0  0  0  0
 21 24  2  0  0  0  0
 22 23  1  0  0  0  0
 22 51  1  0  0  0  0
 23 25  2  0  0  0  0
 23 27  1  0  0  0  0
 24 25  1  0  0  0  0
 24 52  1  0  0  0  0
 26 53  1  0  0  0  0
 26 54  1  0  0  0  0
 26 55  1  0  0  0  0
 28 56  1  0  0  0  0
 28 57  1  0  0  0  0
 28 58  1  0  0  0  0
 29 60  1  0  0  0  0
 30 31  2  0  0  0  0
 30 32  1  0  0  0  0
 31 33  1  0  0  0  0
 32 34  2  0  0  0  0
 32 61  1  0  0  0  0
 33 35  2  0  0  0  0
 34 35  1  0  0  0  0
 34 62  1  0  0  0  0
 35 63  1  0  0  0  0
M  END
> <PUBCHEM_COMPOUND_CID>
11526238

> <PUBCHEM_COMPOUND_CANONICALIZED>
1

> <PUBCHEM_CACTVS_COMPLEXITY>
717

> <PUBCHEM_CACTVS_HBOND_ACCEPTOR>
9

> <PUBCHEM_CACTVS_HBOND_DONOR>
2

> <PUBCHEM_CACTVS_ROTATABLE_BOND>
10

> <PUBCHEM_CACTVS_SUBSKEYS>
AAADceB7sQAEAAAAAAAAAAAAAABYAAAAAAA8YIAAAAAAAACx9AAAHwIQAAAADI7hni439vfIFACoAydzdACCiCkxJ6AJ2CG+bpiOburF+/uVNChu0BvY6CeQ0GMOKAACAgIKAABQAAQEBBQAAAAAAAAAAA==

> <PUBCHEM_IUPAC_OPENEYE_NAME>
3-[[4-(3-chloro-2-fluoro-anilino)-7-methoxy-quinazolin-6-yl]methyl-methyl-amino]-1-(2-methoxyethyl)azetidine-3-carboxamide

> <PUBCHEM_IUPAC_CAS_NAME>
3-[[4-(3-chloro-2-fluoroanilino)-7-methoxy-6-quinazolinyl]methyl-methylamino]-1-(2-methoxyethyl)-3-azetidinecarboxamide

> <PUBCHEM_IUPAC_NAME_MARKUP>
3-[[4-(3-chloro-2-fluoroanilino)-7-methoxyquinazolin-6-yl]methyl-methylamino]-1-(2-methoxyethyl)azetidine-3-carboxamide

> <PUBCHEM_IUPAC_NAME>
3-[[4-(3-chloro-2-fluoroanilino)-7-methoxyquinazolin-6-yl]methyl-methylamino]-1-(2-methoxyethyl)azetidine-3-carboxamide

> <PUBCHEM_IUPAC_SYSTEMATIC_NAME>
3-[[4-[(3-chloranyl-2-fluoranyl-phenyl)amino]-7-methoxy-quinazolin-6-yl]methyl-methyl-amino]-1-(2-methoxyethyl)azetidine-3-carboxamide

> <PUBCHEM_IUPAC_TRADITIONAL_NAME>
3-[[4-(3-chloro-2-fluoro-anilino)-7-methoxy-quinazolin-6-yl]methyl-methyl-amino]-1-(2-methoxyethyl)azetidine-3-carboxamide

> <PUBCHEM_IUPAC_INCHI>
InChI=1S/C24H28ClFN6O3/c1-31(24(23(27)33)12-32(13-24)7-8-34-2)11-15-9-16-19(10-20(15)35-3)28-14-29-22(16)30-18-6-4-5-17(25)21(18)26/h4-6,9-10,14H,7-8,11-13H2,1-3H3,(H2,27,33)(H,28,29,30)

> <PUBCHEM_IUPAC_INCHIKEY>
IKXPVMNZZLUFCI-UHFFFAOYSA-N

> <PUBCHEM_XLOGP3_AA>
2.4

> <PUBCHEM_EXACT_MASS>
502.1895446

> <PUBCHEM_MOLECULAR_FORMULA>
C24H28ClFN6O3

> <PUBCHEM_MOLECULAR_WEIGHT>
503.0

> <PUBCHEM_SMILES>
CN(CC1=CC2=C(C=C1OC)N=CN=C2NC3=C(C(=CC=C3)Cl)F)C4(CN(C4)CCOC)C(=O)N

> <PUBCHEM_OPENEYE_CAN_SMILES>
CN(CC1=CC2=C(C=C1OC)N=CN=C2NC3=C(C(=CC=C3)Cl)F)C4(CN(C4)CCOC)C(=O)N

> <PUBCHEM_OPENEYE_ISO_SMILES>
CN(CC1=CC2=C(C=C1OC)N=CN=C2NC3=C(C(=CC=C3)Cl)F)C4(CN(C4)CCOC)C(=O)N

> <PUBCHEM_CACTVS_TPSA>
106

> <PUBCHEM_MONOISOTOPIC_WEIGHT>
502.1895446

> <PUBCHEM_TOTAL_CHARGE>
0

> <PUBCHEM_HEAVY_ATOM_COUNT>
35

> <PUBCHEM_ATOM_DEF_STEREO_COUNT>
0

> <PUBCHEM_ATOM_UDEF_STEREO_COUNT>
0

> <PUBCHEM_BOND_DEF_STEREO_COUNT>
0

> <PUBCHEM_BOND_UDEF_STEREO_COUNT>
0

> <PUBCHEM_ISOTOPIC_ATOM_COUNT>
0

> <PUBCHEM_COMPONENT_COUNT>
1

> <PUBCHEM_CACTVS_TAUTO_COUNT>
-1

> <PUBCHEM_COORDINATE_TYPE>
1
5
255

> <PUBCHEM_BONDANNOTATIONS>
11  27  8
11  29  8
20  21  8
20  22  8
21  24  8
22  23  8
23  25  8
23  27  8
24  25  8
30  31  8
30  32  8
31  33  8
32  34  8
33  35  8
34  35  8
9  25  8
9  29  8

$$$$
