25016361
  -OEChem-03202503562D

 53 56  0     0  0  0  0  0  0999 V2000
    6.2619   -3.1088    0.0000 F   0  0  0  0  0  0  0  0  0  0  0  0
    9.2619   -1.3767    0.0000 F   0  0  0  0  0  0  0  0  0  0  0  0
    9.5243    3.1044    0.0000 O   0  0  0  0  0  0  0  0  0  0  0  0
    3.7320   -0.8767    0.0000 N   0  0  0  0  0  0  0  0  0  0  0  0
    4.6783   -2.1815    0.0000 N   0  0  0  0  0  0  0  0  0  0  0  0
    7.2566    1.7415    0.0000 N   0  0  0  0  0  0  0  0  0  0  0  0
    5.9674    0.5847    0.0000 N   0  0  0  0  0  0  0  0  0  0  0  0
    2.0000   -1.8767    0.0000 N   0  0  0  0  0  0  0  0  0  0  0  0
    5.6103    2.2796    0.0000 N   0  0  0  0  0  0  0  0  0  0  0  0
    8.5458    2.8982    0.0000 C   0  0  0  0  0  0  0  0  0  0  0  0
    4.6783   -0.5720    0.0000 C   0  0  0  0  0  0  0  0  0  0  0  0
    7.5673    2.6920    0.0000 C   0  0  0  0  0  0  0  0  0  0  0  0
    3.7320   -1.8767    0.0000 C   0  0  0  0  0  0  0  0  0  0  0  0
    5.2619   -1.3767    0.0000 C   0  0  0  0  0  0  0  0  0  0  0  0
    2.8660   -2.3767    0.0000 C   0  0  0  0  0  0  0  0  0  0  0  0
    4.9889    0.3785    0.0000 C   0  0  0  0  0  0  0  0  0  0  0  0
    8.3396    3.8767    0.0000 C   0  0  0  0  0  0  0  0  0  0  0  0
    8.7520    1.9197    0.0000 C   0  0  0  0  0  0  0  0  0  0  0  0
    6.2619   -1.3767    0.0000 C   0  0  0  0  0  0  0  0  0  0  0  0
    2.8660   -0.3767    0.0000 C   0  0  0  0  0  0  0  0  0  0  0  0
    2.8660   -3.3767    0.0000 C   0  0  0  0  0  0  0  0  0  0  0  0
    6.2781    1.5353    0.0000 C   0  0  0  0  0  0  0  0  0  0  0  0
    4.3211    1.1228    0.0000 C   0  0  0  0  0  0  0  0  0  0  0  0
    2.0000   -0.8767    0.0000 C   0  0  0  0  0  0  0  0  0  0  0  0
    6.7619   -2.2428    0.0000 C   0  0  0  0  0  0  0  0  0  0  0  0
    6.7619   -0.5107    0.0000 C   0  0  0  0  0  0  0  0  0  0  0  0
    2.0000   -3.8767    0.0000 C   0  0  0  0  0  0  0  0  0  0  0  0
    4.6318    2.0734    0.0000 C   0  0  0  0  0  0  0  0  0  0  0  0
    7.7619   -2.2428    0.0000 C   0  0  0  0  0  0  0  0  0  0  0  0
    7.7619   -0.5107    0.0000 C   0  0  0  0  0  0  0  0  0  0  0  0
    8.2619   -1.3767    0.0000 C   0  0  0  0  0  0  0  0  0  0  0  0
    7.5467    3.3117    0.0000 H   0  0  0  0  0  0  0  0  0  0  0  0
    6.9534    2.7794    0.0000 H   0  0  0  0  0  0  0  0  0  0  0  0
    8.9462    4.0046    0.0000 H   0  0  0  0  0  0  0  0  0  0  0  0
    8.2117    4.4834    0.0000 H   0  0  0  0  0  0  0  0  0  0  0  0
    7.7329    3.7489    0.0000 H   0  0  0  0  0  0  0  0  0  0  0  0
    8.1453    1.7919    0.0000 H   0  0  0  0  0  0  0  0  0  0  0  0
    8.8798    1.3130    0.0000 H   0  0  0  0  0  0  0  0  0  0  0  0
    9.3587    2.0476    0.0000 H   0  0  0  0  0  0  0  0  0  0  0  0
    7.6707    1.2800    0.0000 H   0  0  0  0  0  0  0  0  0  0  0  0
    2.8660    0.2433    0.0000 H   0  0  0  0  0  0  0  0  0  0  0  0
    3.0781   -3.9593    0.0000 H   0  0  0  0  0  0  0  0  0  0  0  0
    3.4766   -3.2691    0.0000 H   0  0  0  0  0  0  0  0  0  0  0  0
    3.7144    0.9950    0.0000 H   0  0  0  0  0  0  0  0  0  0  0  0
    1.4631   -0.5667    0.0000 H   0  0  0  0  0  0  0  0  0  0  0  0
    9.7169    3.6938    0.0000 H   0  0  0  0  0  0  0  0  0  0  0  0
    6.4519    0.0262    0.0000 H   0  0  0  0  0  0  0  0  0  0  0  0
    1.6900   -3.3398    0.0000 H   0  0  0  0  0  0  0  0  0  0  0  0
    1.4631   -4.1867    0.0000 H   0  0  0  0  0  0  0  0  0  0  0  0
    2.3100   -4.4137    0.0000 H   0  0  0  0  0  0  0  0  0  0  0  0
    4.2177    2.5348    0.0000 H   0  0  0  0  0  0  0  0  0  0  0  0
    8.0719   -2.7797    0.0000 H   0  0  0  0  0  0  0  0  0  0  0  0
    8.0719    0.0262    0.0000 H   0  0  0  0  0  0  0  0  0  0  0  0
  1 25  1  0  0  0  0
  2 31  1  0  0  0  0
  3 10  1  0  0  0  0
  3 46  1  0  0  0  0
  4 11  1  0  0  0  0
  4 13  1  0  0  0  0
  4 20  1  0  0  0  0
  5 13  2  0  0  0  0
  5 14  1  0  0  0  0
  6 12  1  0  0  0  0
  6 22  1  0  0  0  0
  6 40  1  0  0  0  0
  7 16  2  0  0  0  0
  7 22  1  0  0  0  0
  8 15  2  0  0  0  0
  8 24  1  0  0  0  0
  9 22  2  0  0  0  0
  9 28  1  0  0  0  0
 10 12  1  0  0  0  0
 10 17  1  0  0  0  0
 10 18  1  0  0  0  0
 11 14  2  0  0  0  0
 11 16  1  0  0  0  0
 12 32  1  0  0  0  0
 12 33  1  0  0  0  0
 13 15  1  0  0  0  0
 14 19  1  0  0  0  0
 15 21  1  0  0  0  0
 16 23  1  0  0  0  0
 17 34  1  0  0  0  0
 17 35  1  0  0  0  0
 17 36  1  0  0  0  0
 18 37  1  0  0  0  0
 18 38  1  0  0  0  0
 18 39  1  0  0  0  0
 19 25  2  0  0  0  0
 19 26  1  0  0  0  0
 20 24  2  0  0  0  0
 20 41  1  0  0  0  0
 21 27  1  0  0  0  0
 21 42  1  0  0  0  0
 21 43  1  0  0  0  0
 23 28  2  0  0  0  0
 23 44  1  0  0  0  0
 24 45  1  0  0  0  0
 25 29  1  0  0  0  0
 26 30  2  0  0  0  0
 26 47  1  0  0  0  0
 27 48  1  0  0  0  0
 27 49  1  0  0  0  0
 27 50  1  0  0  0  0
 28 51  1  0  0  0  0
 29 31  2  0  0  0  0
 29 52  1  0  0  0  0
 30 31  1  0  0  0  0
 30 53  1  0  0  0  0
M  END
> <PUBCHEM_COMPOUND_CID>
25016361

> <PUBCHEM_COMPOUND_CANONICALIZED>
1

> <PUBCHEM_CACTVS_COMPLEXITY>
598

> <PUBCHEM_CACTVS_HBOND_ACCEPTOR>
8

> <PUBCHEM_CACTVS_HBOND_DONOR>
2

> <PUBCHEM_CACTVS_ROTATABLE_BOND>
6

> <PUBCHEM_CACTVS_SUBSKEYS>
AAADceB7oYAAAAAAAAAAAAAAAAAAAWAAAAA8WIAAAAAAAFgB/AAAHwAQCAAADEzBnww/sJ/MGgCgAzZnZACCgC0xEqAJ2KA4dJiKaOLA2dGUJAhogALYyCcQgMAOAAAAAAAAAAAAAAAAAAAAAAAAAAAAAA==

> <PUBCHEM_IUPAC_OPENEYE_NAME>
1-[[4-[2-(2,4-difluorophenyl)-8-ethyl-imidazo[1,2-a]pyrazin-3-yl]pyrimidin-2-yl]amino]-2-methyl-propan-2-ol

> <PUBCHEM_IUPAC_CAS_NAME>
1-[[4-[2-(2,4-difluorophenyl)-8-ethyl-3-imidazo[1,2-a]pyrazinyl]-2-pyrimidinyl]amino]-2-methyl-2-propanol

> <PUBCHEM_IUPAC_NAME_MARKUP>
1-[[4-[2-(2,4-difluorophenyl)-8-ethylimidazo[1,2-a]pyrazin-3-yl]pyrimidin-2-yl]amino]-2-methylpropan-2-ol

> <PUBCHEM_IUPAC_NAME>
1-[[4-[2-(2,4-difluorophenyl)-8-ethylimidazo[1,2-a]pyrazin-3-yl]pyrimidin-2-yl]amino]-2-methylpropan-2-ol

> <PUBCHEM_IUPAC_SYSTEMATIC_NAME>
1-[[4-[2-[2,4-bis(fluoranyl)phenyl]-8-ethyl-imidazo[1,2-a]pyrazin-3-yl]pyrimidin-2-yl]amino]-2-methyl-propan-2-ol

> <PUBCHEM_IUPAC_TRADITIONAL_NAME>
1-[[4-[2-(2,4-difluorophenyl)-8-ethyl-imidazo[1,2-a]pyrazin-3-yl]pyrimidin-2-yl]amino]-2-methyl-propan-2-ol

> <PUBCHEM_IUPAC_INCHI>
InChI=1S/C22H22F2N6O/c1-4-16-20-29-18(14-6-5-13(23)11-15(14)24)19(30(20)10-9-25-16)17-7-8-26-21(28-17)27-12-22(2,3)31/h5-11,31H,4,12H2,1-3H3,(H,26,27,28)

> <PUBCHEM_IUPAC_INCHIKEY>
KKWLJUDRBFHJPA-UHFFFAOYSA-N

> <PUBCHEM_XLOGP3_AA>
3.6

> <PUBCHEM_EXACT_MASS>
424.18231567

> <PUBCHEM_MOLECULAR_FORMULA>
C22H22F2N6O

> <PUBCHEM_MOLECULAR_WEIGHT>
424.4

> <PUBCHEM_SMILES>
CCC1=NC=CN2C1=NC(=C2C3=NC(=NC=C3)NCC(C)(C)O)C4=C(C=C(C=C4)F)F

> <PUBCHEM_OPENEYE_CAN_SMILES>
CCC1=NC=CN2C1=NC(=C2C3=NC(=NC=C3)NCC(C)(C)O)C4=C(C=C(C=C4)F)F

> <PUBCHEM_OPENEYE_ISO_SMILES>
CCC1=NC=CN2C1=NC(=C2C3=NC(=NC=C3)NCC(C)(C)O)C4=C(C=C(C=C4)F)F

> <PUBCHEM_CACTVS_TPSA>
88.2

> <PUBCHEM_MONOISOTOPIC_WEIGHT>
424.18231567

> <PUBCHEM_TOTAL_CHARGE>
0

> <PUBCHEM_HEAVY_ATOM_COUNT>
31

> <PUBCHEM_ATOM_DEF_STEREO_COUNT>
0

> <PUBCHEM_ATOM_UDEF_STEREO_COUNT>
0

> <PUBCHEM_BOND_DEF_STEREO_COUNT>
0

> <PUBCHEM_BOND_UDEF_STEREO_COUNT>
0

> <PUBCHEM_ISOTOPIC_ATOM_COUNT>
0

> <PUBCHEM_COMPONENT_COUNT>
1

> <PUBCHEM_CACTVS_TAUTO_COUNT>
-1

> <PUBCHEM_COORDINATE_TYPE>
1
5
255

> <PUBCHEM_BONDANNOTATIONS>
11  14  8
13  15  8
16  23  8
19  25  8
19  26  8
20  24  8
23  28  8
25  29  8
26  30  8
29  31  8
30  31  8
4  11  8
4  13  8
4  20  8
5  13  8
5  14  8
7  16  8
7  22  8
8  15  8
8  24  8
9  22  8
9  28  8

$$$$
