49830931
  -OEChem-03202502182D

 49 50  0     0  0  0  0  0  0999 V2000
   11.5263   -0.9050    0.0000 O   0  0  0  0  0  0  0  0  0  0  0  0
    6.3301    1.0950    0.0000 O   0  0  0  0  0  0  0  0  0  0  0  0
    2.8660   -0.9050    0.0000 O   0  0  0  0  0  0  0  0  0  0  0  0
    8.0622   -1.9050    0.0000 O   0  0  0  0  0  0  0  0  0  0  0  0
    7.1962   -0.4050    0.0000 N   0  0  0  0  0  0  0  0  0  0  0  0
    9.7942   -0.9050    0.0000 N   0  0  0  0  0  0  0  0  0  0  0  0
    9.7942    2.0950    0.0000 N   0  0  0  0  0  0  0  0  0  0  0  0
   12.3923    1.5950    0.0000 N   0  0  0  0  0  0  0  0  0  0  0  0
    5.4641   -0.4050    0.0000 C   0  0  0  0  0  0  0  0  0  0  0  0
    6.3301   -0.9050    0.0000 C   0  0  0  0  0  0  0  0  0  0  0  0
   11.5263   -1.9050    0.0000 C   0  0  0  0  0  0  0  0  0  0  0  0
    5.4641    0.5950    0.0000 C   0  0  0  0  0  0  0  0  0  0  0  0
    4.5981   -0.9050    0.0000 C   0  0  0  0  0  0  0  0  0  0  0  0
    8.9282   -0.4050    0.0000 C   0  0  0  0  0  0  0  0  0  0  0  0
   10.6603   -0.4050    0.0000 C   0  0  0  0  0  0  0  0  0  0  0  0
    8.0622   -0.9050    0.0000 C   0  0  0  0  0  0  0  0  0  0  0  0
    3.7320   -0.4050    0.0000 C   0  0  0  0  0  0  0  0  0  0  0  0
    4.5981    1.0950    0.0000 C   0  0  0  0  0  0  0  0  0  0  0  0
   10.6603    0.5950    0.0000 C   0  0  0  0  0  0  0  0  0  0  0  0
    9.7942    1.0950    0.0000 C   0  0  0  0  0  0  0  0  0  0  0  0
    8.9282    0.5950    0.0000 C   0  0  0  0  0  0  0  0  0  0  0  0
    3.7320    0.5950    0.0000 C   0  0  0  0  0  0  0  0  0  0  0  0
   12.3923   -2.4050    0.0000 C   0  0  0  0  0  0  0  0  0  0  0  0
   10.6603   -2.4050    0.0000 C   0  0  0  0  0  0  0  0  0  0  0  0
    6.3301    2.0950    0.0000 C   0  0  0  0  0  0  0  0  0  0  0  0
   11.5263    1.0950    0.0000 C   0  0  0  0  0  0  0  0  0  0  0  0
    2.0000   -0.4050    0.0000 C   0  0  0  0  0  0  0  0  0  0  0  0
    5.9316   -1.3800    0.0000 H   0  0  0  0  0  0  0  0  0  0  0  0
    6.7287   -1.3800    0.0000 H   0  0  0  0  0  0  0  0  0  0  0  0
   12.0632   -1.5950    0.0000 H   0  0  0  0  0  0  0  0  0  0  0  0
    7.1962    0.2150    0.0000 H   0  0  0  0  0  0  0  0  0  0  0  0
    4.5981   -1.5250    0.0000 H   0  0  0  0  0  0  0  0  0  0  0  0
    4.5981    1.7150    0.0000 H   0  0  0  0  0  0  0  0  0  0  0  0
    8.3913    0.9050    0.0000 H   0  0  0  0  0  0  0  0  0  0  0  0
    3.1951    0.9050    0.0000 H   0  0  0  0  0  0  0  0  0  0  0  0
   12.0823   -2.9419    0.0000 H   0  0  0  0  0  0  0  0  0  0  0  0
   12.9292   -2.7150    0.0000 H   0  0  0  0  0  0  0  0  0  0  0  0
   12.7023   -1.8681    0.0000 H   0  0  0  0  0  0  0  0  0  0  0  0
   10.3503   -1.8681    0.0000 H   0  0  0  0  0  0  0  0  0  0  0  0
   10.1233   -2.7150    0.0000 H   0  0  0  0  0  0  0  0  0  0  0  0
   10.9703   -2.9419    0.0000 H   0  0  0  0  0  0  0  0  0  0  0  0
    9.2573    2.4050    0.0000 H   0  0  0  0  0  0  0  0  0  0  0  0
   10.3312    2.4050    0.0000 H   0  0  0  0  0  0  0  0  0  0  0  0
    6.9501    2.0950    0.0000 H   0  0  0  0  0  0  0  0  0  0  0  0
    6.3301    2.7150    0.0000 H   0  0  0  0  0  0  0  0  0  0  0  0
    5.7101    2.0950    0.0000 H   0  0  0  0  0  0  0  0  0  0  0  0
    2.3100    0.1319    0.0000 H   0  0  0  0  0  0  0  0  0  0  0  0
    1.4631   -0.0950    0.0000 H   0  0  0  0  0  0  0  0  0  0  0  0
    1.6900   -0.9419    0.0000 H   0  0  0  0  0  0  0  0  0  0  0  0
  1 11  1  0  0  0  0
  1 15  1  0  0  0  0
  2 12  1  0  0  0  0
  2 25  1  0  0  0  0
  3 17  1  0  0  0  0
  3 27  1  0  0  0  0
  4 16  2  0  0  0  0
  5 10  1  0  0  0  0
  5 16  1  0  0  0  0
  5 31  1  0  0  0  0
  6 14  2  0  0  0  0
  6 15  1  0  0  0  0
  7 20  1  0  0  0  0
  7 42  1  0  0  0  0
  7 43  1  0  0  0  0
  8 26  3  0  0  0  0
  9 10  1  0  0  0  0
  9 12  2  0  0  0  0
  9 13  1  0  0  0  0
 10 28  1  0  0  0  0
 10 29  1  0  0  0  0
 11 23  1  0  0  0  0
 11 24  1  0  0  0  0
 11 30  1  0  0  0  0
 12 18  1  0  0  0  0
 13 17  2  0  0  0  0
 13 32  1  0  0  0  0
 14 16  1  0  0  0  0
 14 21  1  0  0  0  0
 15 19  2  0  0  0  0
 17 22  1  0  0  0  0
 18 22  2  0  0  0  0
 18 33  1  0  0  0  0
 19 20  1  0  0  0  0
 19 26  1  0  0  0  0
 20 21  2  0  0  0  0
 21 34  1  0  0  0  0
 22 35  1  0  0  0  0
 23 36  1  0  0  0  0
 23 37  1  0  0  0  0
 23 38  1  0  0  0  0
 24 39  1  0  0  0  0
 24 40  1  0  0  0  0
 24 41  1  0  0  0  0
 25 44  1  0  0  0  0
 25 45  1  0  0  0  0
 25 46  1  0  0  0  0
 27 47  1  0  0  0  0
 27 48  1  0  0  0  0
 27 49  1  0  0  0  0
M  END
> <PUBCHEM_COMPOUND_CID>
49830931

> <PUBCHEM_COMPOUND_CANONICALIZED>
1

> <PUBCHEM_CACTVS_COMPLEXITY>
535

> <PUBCHEM_CACTVS_HBOND_ACCEPTOR>
7

> <PUBCHEM_CACTVS_HBOND_DONOR>
2

> <PUBCHEM_CACTVS_ROTATABLE_BOND>
7

> <PUBCHEM_CACTVS_SUBSKEYS>
AAADceB7uAAAAAAAAAAAAAAAAAAAAAAAAAA8QAAAAAAAAAABwAAAHgAQAAAADBzhngYyxpLIFAC4ByVyVACiiCAnIiAImKG+bNgM5nLE9fuePSjm1hnI6Y/82DEOAQABAAAIAAACAAIAABAAAAAAAAAAAA==

> <PUBCHEM_IUPAC_OPENEYE_NAME>
4-amino-5-cyano-N-[(2,5-dimethoxyphenyl)methyl]-6-isopropoxy-pyridine-2-carboxamide

> <PUBCHEM_IUPAC_CAS_NAME>
4-amino-5-cyano-N-[(2,5-dimethoxyphenyl)methyl]-6-propan-2-yloxy-2-pyridinecarboxamide

> <PUBCHEM_IUPAC_NAME_MARKUP>
4-amino-5-cyano-<I>N</I>-[(2,5-dimethoxyphenyl)methyl]-6-propan-2-yloxypyridine-2-carboxamide

> <PUBCHEM_IUPAC_NAME>
4-amino-5-cyano-N-[(2,5-dimethoxyphenyl)methyl]-6-propan-2-yloxypyridine-2-carboxamide

> <PUBCHEM_IUPAC_SYSTEMATIC_NAME>
4-azanyl-5-cyano-N-[(2,5-dimethoxyphenyl)methyl]-6-propan-2-yloxy-pyridine-2-carboxamide

> <PUBCHEM_IUPAC_TRADITIONAL_NAME>
4-amino-5-cyano-N-(2,5-dimethoxybenzyl)-6-isopropoxy-picolinamide

> <PUBCHEM_IUPAC_INCHI>
InChI=1S/C19H22N4O4/c1-11(2)27-19-14(9-20)15(21)8-16(23-19)18(24)22-10-12-7-13(25-3)5-6-17(12)26-4/h5-8,11H,10H2,1-4H3,(H2,21,23)(H,22,24)

> <PUBCHEM_IUPAC_INCHIKEY>
JGHKUPWWROVUGB-UHFFFAOYSA-N

> <PUBCHEM_XLOGP3_AA>
2.6

> <PUBCHEM_EXACT_MASS>
370.16410520

> <PUBCHEM_MOLECULAR_FORMULA>
C19H22N4O4

> <PUBCHEM_MOLECULAR_WEIGHT>
370.4

> <PUBCHEM_SMILES>
CC(C)OC1=C(C(=CC(=N1)C(=O)NCC2=C(C=CC(=C2)OC)OC)N)C#N

> <PUBCHEM_OPENEYE_CAN_SMILES>
CC(C)OC1=C(C(=CC(=N1)C(=O)NCC2=C(C=CC(=C2)OC)OC)N)C#N

> <PUBCHEM_OPENEYE_ISO_SMILES>
CC(C)OC1=C(C(=CC(=N1)C(=O)NCC2=C(C=CC(=C2)OC)OC)N)C#N

> <PUBCHEM_CACTVS_TPSA>
119

> <PUBCHEM_MONOISOTOPIC_WEIGHT>
370.16410520

> <PUBCHEM_TOTAL_CHARGE>
0

> <PUBCHEM_HEAVY_ATOM_COUNT>
27

> <PUBCHEM_ATOM_DEF_STEREO_COUNT>
0

> <PUBCHEM_ATOM_UDEF_STEREO_COUNT>
0

> <PUBCHEM_BOND_DEF_STEREO_COUNT>
0

> <PUBCHEM_BOND_UDEF_STEREO_COUNT>
0

> <PUBCHEM_ISOTOPIC_ATOM_COUNT>
0

> <PUBCHEM_COMPONENT_COUNT>
1

> <PUBCHEM_CACTVS_TAUTO_COUNT>
-1

> <PUBCHEM_COORDINATE_TYPE>
1
5
255

> <PUBCHEM_BONDANNOTATIONS>
12  18  8
13  17  8
14  21  8
15  19  8
17  22  8
18  22  8
19  20  8
20  21  8
6  14  8
6  15  8
9  12  8
9  13  8

$$$$
