46871637
  -OEChem-03192523252D

 61 65  0     1  0  0  0  0  0999 V2000
   14.1405    0.4489    0.0000 Cl  0  0  0  0  0  0  0  0  0  0  0  0
    9.7817    2.8986    0.0000 F   0  0  0  0  0  0  0  0  0  0  0  0
   11.1434    3.2804    0.0000 F   0  0  0  0  0  0  0  0  0  0  0  0
   10.1635    1.5369    0.0000 F   0  0  0  0  0  0  0  0  0  0  0  0
    4.5981    0.8742    0.0000 N   0  0  0  0  0  0  0  0  0  0  0  0
    2.8660    1.8742    0.0000 N   0  0  0  0  0  0  0  0  0  0  0  0
   10.6882   -0.5911    0.0000 N   0  0  3  0  0  0  0  0  0  0  0  0
   10.6882   -2.6605    0.0000 N   0  0  0  0  0  0  0  0  0  0  0  0
    6.3301    0.8742    0.0000 N   0  0  0  0  0  0  0  0  0  0  0  0
    8.9282   -2.6258    0.0000 N   0  0  0  0  0  0  0  0  0  0  0  0
    4.5981    1.8742    0.0000 C   0  0  0  0  0  0  0  0  0  0  0  0
    3.7320    0.3742    0.0000 C   0  0  0  0  0  0  0  0  0  0  0  0
    3.7320    2.3742    0.0000 C   0  0  0  0  0  0  0  0  0  0  0  0
    2.8660    0.8742    0.0000 C   0  0  0  0  0  0  0  0  0  0  0  0
   11.5942   -1.1050    0.0000 C   0  0  0  0  0  0  0  0  0  0  0  0
    9.7942   -1.1258    0.0000 C   0  0  0  0  0  0  0  0  0  0  0  0
    5.4641    0.3742    0.0000 C   0  0  0  0  0  0  0  0  0  0  0  0
   11.5942   -2.1466    0.0000 C   0  0  0  0  0  0  0  0  0  0  0  0
   10.6766    0.4088    0.0000 C   0  0  0  0  0  0  0  0  0  0  0  0
    9.7942   -2.1258    0.0000 C   0  0  0  0  0  0  0  0  0  0  0  0
    2.0000    2.3742    0.0000 C   0  0  0  0  0  0  0  0  0  0  0  0
    8.9282   -0.6258    0.0000 C   0  0  0  0  0  0  0  0  0  0  0  0
    8.0622   -1.1258    0.0000 C   0  0  0  0  0  0  0  0  0  0  0  0
   11.5368    0.9188    0.0000 C   0  0  0  0  0  0  0  0  0  0  0  0
    7.1962   -0.6258    0.0000 C   0  0  0  0  0  0  0  0  0  0  0  0
    5.4641   -0.6258    0.0000 C   0  0  0  0  0  0  0  0  0  0  0  0
    6.3301   -1.1258    0.0000 C   0  0  0  0  0  0  0  0  0  0  0  0
    8.0622   -2.1258    0.0000 C   0  0  0  0  0  0  0  0  0  0  0  0
    7.1962    0.3742    0.0000 C   0  0  0  0  0  0  0  0  0  0  0  0
   11.5252    1.9187    0.0000 C   0  0  0  0  0  0  0  0  0  0  0  0
   12.4085    0.4288    0.0000 C   0  0  0  0  0  0  0  0  0  0  0  0
   12.3854    2.4287    0.0000 C   0  0  0  0  0  0  0  0  0  0  0  0
   10.6535    2.4087    0.0000 C   0  0  0  0  0  0  0  0  0  0  0  0
   13.2687    0.9388    0.0000 C   0  0  0  0  0  0  0  0  0  0  0  0
   13.2572    1.9387    0.0000 C   0  0  0  0  0  0  0  0  0  0  0  0
    5.2087    1.7665    0.0000 H   0  0  0  0  0  0  0  0  0  0  0  0
    4.8101    2.4568    0.0000 H   0  0  0  0  0  0  0  0  0  0  0  0
    3.3335   -0.1007    0.0000 H   0  0  0  0  0  0  0  0  0  0  0  0
    4.1306   -0.1007    0.0000 H   0  0  0  0  0  0  0  0  0  0  0  0
    4.1306    2.8492    0.0000 H   0  0  0  0  0  0  0  0  0  0  0  0
    3.3335    2.8492    0.0000 H   0  0  0  0  0  0  0  0  0  0  0  0
    2.2554    0.9819    0.0000 H   0  0  0  0  0  0  0  0  0  0  0  0
    2.6540    0.2916    0.0000 H   0  0  0  0  0  0  0  0  0  0  0  0
   12.2051   -1.2111    0.0000 H   0  0  0  0  0  0  0  0  0  0  0  0
   11.8033   -0.5213    0.0000 H   0  0  0  0  0  0  0  0  0  0  0  0
   11.8033   -2.7303    0.0000 H   0  0  0  0  0  0  0  0  0  0  0  0
   12.2051   -2.0405    0.0000 H   0  0  0  0  0  0  0  0  0  0  0  0
   10.4578    0.9889    0.0000 H   0  0  0  0  0  0  0  0  0  0  0  0
   10.0673    0.2941    0.0000 H   0  0  0  0  0  0  0  0  0  0  0  0
    2.3100    2.9111    0.0000 H   0  0  0  0  0  0  0  0  0  0  0  0
    1.4631    2.6842    0.0000 H   0  0  0  0  0  0  0  0  0  0  0  0
    1.6900    1.8373    0.0000 H   0  0  0  0  0  0  0  0  0  0  0  0
   10.6810   -3.2804    0.0000 H   0  0  0  0  0  0  0  0  0  0  0  0
    8.9282   -0.0058    0.0000 H   0  0  0  0  0  0  0  0  0  0  0  0
    4.9272   -0.9358    0.0000 H   0  0  0  0  0  0  0  0  0  0  0  0
    6.3301   -1.7458    0.0000 H   0  0  0  0  0  0  0  0  0  0  0  0
    7.5252   -2.4358    0.0000 H   0  0  0  0  0  0  0  0  0  0  0  0
    7.7331    0.6842    0.0000 H   0  0  0  0  0  0  0  0  0  0  0  0
   12.4157   -0.1911    0.0000 H   0  0  0  0  0  0  0  0  0  0  0  0
   12.3782    3.0486    0.0000 H   0  0  0  0  0  0  0  0  0  0  0  0
   13.7905    2.2549    0.0000 H   0  0  0  0  0  0  0  0  0  0  0  0
  1 34  1  0  0  0  0
  2 33  1  0  0  0  0
  3 33  1  0  0  0  0
  4 33  1  0  0  0  0
  5 11  1  0  0  0  0
  5 12  1  0  0  0  0
  5 17  1  0  0  0  0
  6 13  1  0  0  0  0
  6 14  1  0  0  0  0
  6 21  1  0  0  0  0
  7 15  1  0  0  0  0
  7 16  1  0  0  0  0
  7 19  1  0  0  0  0
  8 18  1  0  0  0  0
  8 20  1  0  0  0  0
  8 53  1  0  0  0  0
  9 17  2  0  0  0  0
  9 29  1  0  0  0  0
 10 20  1  0  0  0  0
 10 28  2  0  0  0  0
 11 13  1  0  0  0  0
 11 36  1  0  0  0  0
 11 37  1  0  0  0  0
 12 14  1  0  0  0  0
 12 38  1  0  0  0  0
 12 39  1  0  0  0  0
 13 40  1  0  0  0  0
 13 41  1  0  0  0  0
 14 42  1  0  0  0  0
 14 43  1  0  0  0  0
 15 18  1  0  0  0  0
 15 44  1  0  0  0  0
 15 45  1  0  0  0  0
 16 20  2  0  0  0  0
 16 22  1  0  0  0  0
 17 26  1  0  0  0  0
 18 46  1  0  0  0  0
 18 47  1  0  0  0  0
 19 24  1  0  0  0  0
 19 48  1  0  0  0  0
 19 49  1  0  0  0  0
 21 50  1  0  0  0  0
 21 51  1  0  0  0  0
 21 52  1  0  0  0  0
 22 23  2  0  0  0  0
 22 54  1  0  0  0  0
 23 25  1  0  0  0  0
 23 28  1  0  0  0  0
 24 30  2  0  0  0  0
 24 31  1  0  0  0  0
 25 27  1  0  0  0  0
 25 29  2  0  0  0  0
 26 27  2  0  0  0  0
 26 55  1  0  0  0  0
 27 56  1  0  0  0  0
 28 57  1  0  0  0  0
 29 58  1  0  0  0  0
 30 32  1  0  0  0  0
 30 33  1  0  0  0  0
 31 34  2  0  0  0  0
 31 59  1  0  0  0  0
 32 35  2  0  0  0  0
 32 60  1  0  0  0  0
 34 35  1  0  0  0  0
 35 61  1  0  0  0  0
M  END
> <PUBCHEM_COMPOUND_CID>
46871637

> <PUBCHEM_COMPOUND_CANONICALIZED>
1

> <PUBCHEM_CACTVS_COMPLEXITY>
691

> <PUBCHEM_CACTVS_HBOND_ACCEPTOR>
9

> <PUBCHEM_CACTVS_HBOND_DONOR>
1

> <PUBCHEM_CACTVS_ROTATABLE_BOND>
4

> <PUBCHEM_CACTVS_SUBSKEYS>
AAADceB7gYAEAAAAAAAAAAAAAAAAAAAAAAA8WLFiAAAAAACx8AAAHQIQAAAADArBGjQ/8JPIEACgAjZnZACCgCkxFyAJ2KA4dpiIYOLBm5GUIAhokALIyCcQgIAOhAAAIAAQAAAIAABAACAAAAAAAAAAAA==

> <PUBCHEM_IUPAC_OPENEYE_NAME>
1-[[5-chloro-2-(trifluoromethyl)phenyl]methyl]-7-[6-(4-methylpiperazin-1-yl)-3-pyridyl]-3,4-dihydro-2H-pyrido[2,3-b]pyrazine

> <PUBCHEM_IUPAC_CAS_NAME>
1-[[5-chloro-2-(trifluoromethyl)phenyl]methyl]-7-[6-(4-methyl-1-piperazinyl)-3-pyridinyl]-3,4-dihydro-2H-pyrido[2,3-b]pyrazine

> <PUBCHEM_IUPAC_NAME_MARKUP>
1-[[5-chloro-2-(trifluoromethyl)phenyl]methyl]-7-[6-(4-methylpiperazin-1-yl)pyridin-3-yl]-3,4-dihydro-2<I>H</I>-pyrido[2,3-b]pyrazine

> <PUBCHEM_IUPAC_NAME>
1-[[5-chloro-2-(trifluoromethyl)phenyl]methyl]-7-[6-(4-methylpiperazin-1-yl)pyridin-3-yl]-3,4-dihydro-2H-pyrido[2,3-b]pyrazine

> <PUBCHEM_IUPAC_SYSTEMATIC_NAME>
1-[[5-chloranyl-2-(trifluoromethyl)phenyl]methyl]-7-[6-(4-methylpiperazin-1-yl)pyridin-3-yl]-3,4-dihydro-2H-pyrido[2,3-b]pyrazine

> <PUBCHEM_IUPAC_TRADITIONAL_NAME>
1-[5-chloro-2-(trifluoromethyl)benzyl]-7-[6-(4-methylpiperazino)-3-pyridyl]-3,4-dihydro-2H-pyrido[2,3-b]pyrazine

> <PUBCHEM_IUPAC_INCHI>
InChI=1S/C25H26ClF3N6/c1-33-8-10-34(11-9-33)23-5-2-17(14-31-23)18-13-22-24(32-15-18)30-6-7-35(22)16-19-12-20(26)3-4-21(19)25(27,28)29/h2-5,12-15H,6-11,16H2,1H3,(H,30,32)

> <PUBCHEM_IUPAC_INCHIKEY>
LJKJYKWDLJUZHA-UHFFFAOYSA-N

> <PUBCHEM_XLOGP3_AA>
4.9

> <PUBCHEM_EXACT_MASS>
502.1859570

> <PUBCHEM_MOLECULAR_FORMULA>
C25H26ClF3N6

> <PUBCHEM_MOLECULAR_WEIGHT>
503.0

> <PUBCHEM_SMILES>
CN1CCN(CC1)C2=NC=C(C=C2)C3=CC4=C(NCCN4CC5=C(C=CC(=C5)Cl)C(F)(F)F)N=C3

> <PUBCHEM_OPENEYE_CAN_SMILES>
CN1CCN(CC1)C2=NC=C(C=C2)C3=CC4=C(NCCN4CC5=C(C=CC(=C5)Cl)C(F)(F)F)N=C3

> <PUBCHEM_OPENEYE_ISO_SMILES>
CN1CCN(CC1)C2=NC=C(C=C2)C3=CC4=C(NCCN4CC5=C(C=CC(=C5)Cl)C(F)(F)F)N=C3

> <PUBCHEM_CACTVS_TPSA>
47.5

> <PUBCHEM_MONOISOTOPIC_WEIGHT>
502.1859570

> <PUBCHEM_TOTAL_CHARGE>
0

> <PUBCHEM_HEAVY_ATOM_COUNT>
35

> <PUBCHEM_ATOM_DEF_STEREO_COUNT>
0

> <PUBCHEM_ATOM_UDEF_STEREO_COUNT>
0

> <PUBCHEM_BOND_DEF_STEREO_COUNT>
0

> <PUBCHEM_BOND_UDEF_STEREO_COUNT>
0

> <PUBCHEM_ISOTOPIC_ATOM_COUNT>
0

> <PUBCHEM_COMPONENT_COUNT>
1

> <PUBCHEM_CACTVS_TAUTO_COUNT>
-1

> <PUBCHEM_COORDINATE_TYPE>
1
5
255

> <PUBCHEM_BONDANNOTATIONS>
10  20  8
10  28  8
16  20  8
16  22  8
17  26  8
22  23  8
23  28  8
24  30  8
24  31  8
25  27  8
25  29  8
26  27  8
30  32  8
31  34  8
32  35  8
34  35  8
9  17  8
9  29  8

$$$$
