44410949
  -OEChem-03202504402D

 56 58  0     1  0  0  0  0  0999 V2000
    9.4467   -3.5272    0.0000 Cl  0  0  0  0  0  0  0  0  0  0  0  0
    7.7263   -2.5072    0.0000 F   0  0  0  0  0  0  0  0  0  0  0  0
    4.2690    2.5272    0.0000 O   0  0  0  0  0  0  0  0  0  0  0  0
    4.2690   -2.4728    0.0000 O   0  0  0  0  0  0  0  0  0  0  0  0
    4.2690   -0.4728    0.0000 N   0  0  3  0  0  0  0  0  0  0  0  0
    2.5369   -2.4728    0.0000 N   0  0  0  0  0  0  0  0  0  0  0  0
    7.7610    2.5619    0.0000 N   0  0  0  0  0  0  0  0  0  0  0  0
    7.7494   -0.5074    0.0000 N   0  0  0  0  0  0  0  0  0  0  0  0
    8.6671    1.0064    0.0000 N   0  0  0  0  0  0  0  0  0  0  0  0
    5.1350   -0.9728    0.0000 C   0  0  0  0  0  0  0  0  0  0  0  0
    3.4030   -0.9728    0.0000 C   0  0  1  0  0  0  0  0  0  0  0  0
    4.2690    0.5272    0.0000 C   0  0  0  0  0  0  0  0  0  0  0  0
    5.1350    1.0272    0.0000 C   0  0  0  0  0  0  0  0  0  0  0  0
    5.1350   -1.9728    0.0000 C   0  0  0  0  0  0  0  0  0  0  0  0
    6.0010   -0.4728    0.0000 C   0  0  0  0  0  0  0  0  0  0  0  0
    2.5369   -0.4728    0.0000 C   0  0  0  0  0  0  0  0  0  0  0  0
    3.4030   -1.9728    0.0000 C   0  0  0  0  0  0  0  0  0  0  0  0
    6.0010    0.5272    0.0000 C   0  0  0  0  0  0  0  0  0  0  0  0
    5.1350    2.0272    0.0000 C   0  0  0  0  0  0  0  0  0  0  0  0
    6.8671    1.0272    0.0000 C   0  0  0  0  0  0  0  0  0  0  0  0
    6.8671    2.0272    0.0000 C   0  0  0  0  0  0  0  0  0  0  0  0
    6.0010    2.5272    0.0000 C   0  0  0  0  0  0  0  0  0  0  0  0
    7.7610    0.4926    0.0000 C   0  0  0  0  0  0  0  0  0  0  0  0
    8.6671    2.0480    0.0000 C   0  0  0  0  0  0  0  0  0  0  0  0
    4.2690    3.5272    0.0000 C   0  0  0  0  0  0  0  0  0  0  0  0
    8.6096   -1.0174    0.0000 C   0  0  0  0  0  0  0  0  0  0  0  0
    8.5981   -2.0173    0.0000 C   0  0  0  0  0  0  0  0  0  0  0  0
    9.4814   -0.5274    0.0000 C   0  0  0  0  0  0  0  0  0  0  0  0
    9.4582   -2.5273    0.0000 C   0  0  0  0  0  0  0  0  0  0  0  0
   10.3416   -1.0374    0.0000 C   0  0  0  0  0  0  0  0  0  0  0  0
   10.3300   -2.0373    0.0000 C   0  0  0  0  0  0  0  0  0  0  0  0
    5.1350   -0.3528    0.0000 H   0  0  0  0  0  0  0  0  0  0  0  0
    3.4030   -0.3528    0.0000 H   0  0  0  0  0  0  0  0  0  0  0  0
    4.0569    1.1098    0.0000 H   0  0  0  0  0  0  0  0  0  0  0  0
    3.6584    0.4195    0.0000 H   0  0  0  0  0  0  0  0  0  0  0  0
    4.5150   -1.9728    0.0000 H   0  0  0  0  0  0  0  0  0  0  0  0
    5.1350   -2.5928    0.0000 H   0  0  0  0  0  0  0  0  0  0  0  0
    5.7550   -1.9728    0.0000 H   0  0  0  0  0  0  0  0  0  0  0  0
    6.3110   -1.0097    0.0000 H   0  0  0  0  0  0  0  0  0  0  0  0
    6.5380   -0.1628    0.0000 H   0  0  0  0  0  0  0  0  0  0  0  0
    5.6910    0.0641    0.0000 H   0  0  0  0  0  0  0  0  0  0  0  0
    2.8469    0.0641    0.0000 H   0  0  0  0  0  0  0  0  0  0  0  0
    2.0000   -0.1628    0.0000 H   0  0  0  0  0  0  0  0  0  0  0  0
    2.2269   -1.0097    0.0000 H   0  0  0  0  0  0  0  0  0  0  0  0
    6.0010   -0.0928    0.0000 H   0  0  0  0  0  0  0  0  0  0  0  0
    6.0010    3.1472    0.0000 H   0  0  0  0  0  0  0  0  0  0  0  0
    2.5369   -3.0928    0.0000 H   0  0  0  0  0  0  0  0  0  0  0  0
    2.0000   -2.1628    0.0000 H   0  0  0  0  0  0  0  0  0  0  0  0
    7.2090   -0.8112    0.0000 H   0  0  0  0  0  0  0  0  0  0  0  0
    9.2028    2.3601    0.0000 H   0  0  0  0  0  0  0  0  0  0  0  0
    4.8890    3.5272    0.0000 H   0  0  0  0  0  0  0  0  0  0  0  0
    4.2690    4.1472    0.0000 H   0  0  0  0  0  0  0  0  0  0  0  0
    3.6490    3.5272    0.0000 H   0  0  0  0  0  0  0  0  0  0  0  0
    9.4886    0.0925    0.0000 H   0  0  0  0  0  0  0  0  0  0  0  0
   10.8820   -0.7336    0.0000 H   0  0  0  0  0  0  0  0  0  0  0  0
   10.8633   -2.3535    0.0000 H   0  0  0  0  0  0  0  0  0  0  0  0
  1 29  1  0  0  0  0
  2 27  1  0  0  0  0
  3 19  1  0  0  0  0
  3 25  1  0  0  0  0
  4 17  2  0  0  0  0
  5 10  1  0  0  0  0
 11  5  1  6  0  0  0
  5 12  1  0  0  0  0
  6 17  1  0  0  0  0
  6 47  1  0  0  0  0
  6 48  1  0  0  0  0
  7 21  1  0  0  0  0
  7 24  2  0  0  0  0
  8 23  1  0  0  0  0
  8 26  1  0  0  0  0
  8 49  1  0  0  0  0
  9 23  2  0  0  0  0
  9 24  1  0  0  0  0
 10 14  1  0  0  0  0
 10 15  1  0  0  0  0
 10 32  1  0  0  0  0
 11 16  1  0  0  0  0
 11 17  1  0  0  0  0
 11 33  1  0  0  0  0
 12 13  1  0  0  0  0
 12 34  1  0  0  0  0
 12 35  1  0  0  0  0
 13 18  2  0  0  0  0
 13 19  1  0  0  0  0
 14 36  1  0  0  0  0
 14 37  1  0  0  0  0
 14 38  1  0  0  0  0
 15 39  1  0  0  0  0
 15 40  1  0  0  0  0
 15 41  1  0  0  0  0
 16 42  1  0  0  0  0
 16 43  1  0  0  0  0
 16 44  1  0  0  0  0
 18 20  1  0  0  0  0
 18 45  1  0  0  0  0
 19 22  2  0  0  0  0
 20 21  2  0  0  0  0
 20 23  1  0  0  0  0
 21 22  1  0  0  0  0
 22 46  1  0  0  0  0
 24 50  1  0  0  0  0
 25 51  1  0  0  0  0
 25 52  1  0  0  0  0
 25 53  1  0  0  0  0
 26 27  2  0  0  0  0
 26 28  1  0  0  0  0
 27 29  1  0  0  0  0
 28 30  2  0  0  0  0
 28 54  1  0  0  0  0
 29 31  2  0  0  0  0
 30 31  1  0  0  0  0
 30 55  1  0  0  0  0
 31 56  1  0  0  0  0
M  END
> <PUBCHEM_COMPOUND_CID>
44410949

> <PUBCHEM_COMPOUND_CANONICALIZED>
1

> <PUBCHEM_CACTVS_COMPLEXITY>
600

> <PUBCHEM_CACTVS_HBOND_ACCEPTOR>
7

> <PUBCHEM_CACTVS_HBOND_DONOR>
2

> <PUBCHEM_CACTVS_ROTATABLE_BOND>
8

> <PUBCHEM_CACTVS_SUBSKEYS>
AAADceB7sQAEAAAAAAAAAAAAAAAAAAAAAAA8YIAAAAAAAACx9AAAHwIQAAAADC7Bni439vfIFACoAydzdACCiCkxJ6AJ2CG+bpiMbuLF+/uUNChu0BvI6CeQ0GMOKAACAgIKAABQAAQEBBQAAAAAAAAAAA==

> <PUBCHEM_IUPAC_OPENEYE_NAME>
(2S)-2-[[4-(3-chloro-2-fluoro-anilino)-7-methoxy-quinazolin-6-yl]methyl-isopropyl-amino]propanamide

> <PUBCHEM_IUPAC_CAS_NAME>
(2S)-2-[[4-(3-chloro-2-fluoroanilino)-7-methoxy-6-quinazolinyl]methyl-propan-2-ylamino]propanamide

> <PUBCHEM_IUPAC_NAME_MARKUP>
(2<I>S</I>)-2-[[4-(3-chloro-2-fluoroanilino)-7-methoxyquinazolin-6-yl]methyl-propan-2-ylamino]propanamide

> <PUBCHEM_IUPAC_NAME>
(2S)-2-[[4-(3-chloro-2-fluoroanilino)-7-methoxyquinazolin-6-yl]methyl-propan-2-ylamino]propanamide

> <PUBCHEM_IUPAC_SYSTEMATIC_NAME>
(2S)-2-[[4-[(3-chloranyl-2-fluoranyl-phenyl)amino]-7-methoxy-quinazolin-6-yl]methyl-propan-2-yl-amino]propanamide

> <PUBCHEM_IUPAC_TRADITIONAL_NAME>
(2S)-2-[[4-(3-chloro-2-fluoro-anilino)-7-methoxy-quinazolin-6-yl]methyl-isopropyl-amino]propionamide

> <PUBCHEM_IUPAC_INCHI>
InChI=1S/C22H25ClFN5O2/c1-12(2)29(13(3)21(25)30)10-14-8-15-18(9-19(14)31-4)26-11-27-22(15)28-17-7-5-6-16(23)20(17)24/h5-9,11-13H,10H2,1-4H3,(H2,25,30)(H,26,27,28)/t13-/m0/s1

> <PUBCHEM_IUPAC_INCHIKEY>
OJGQFAGYVWAAAD-ZDUSSCGKSA-N

> <PUBCHEM_XLOGP3_AA>
4.1

> <PUBCHEM_EXACT_MASS>
445.1680809

> <PUBCHEM_MOLECULAR_FORMULA>
C22H25ClFN5O2

> <PUBCHEM_MOLECULAR_WEIGHT>
445.9

> <PUBCHEM_SMILES>
C[C@@H](C(=O)N)N(CC1=CC2=C(C=C1OC)N=CN=C2NC3=C(C(=CC=C3)Cl)F)C(C)C

> <PUBCHEM_OPENEYE_CAN_SMILES>
CC(C)N(CC1=CC2=C(C=C1OC)N=CN=C2NC3=C(C(=CC=C3)Cl)F)C(C)C(=O)N

> <PUBCHEM_OPENEYE_ISO_SMILES>
C[C@@H](C(=O)N)N(CC1=CC2=C(C=C1OC)N=CN=C2NC3=C(C(=CC=C3)Cl)F)C(C)C

> <PUBCHEM_CACTVS_TPSA>
93.4

> <PUBCHEM_MONOISOTOPIC_WEIGHT>
445.1680809

> <PUBCHEM_TOTAL_CHARGE>
0

> <PUBCHEM_HEAVY_ATOM_COUNT>
31

> <PUBCHEM_ATOM_DEF_STEREO_COUNT>
1

> <PUBCHEM_ATOM_UDEF_STEREO_COUNT>
0

> <PUBCHEM_BOND_DEF_STEREO_COUNT>
0

> <PUBCHEM_BOND_UDEF_STEREO_COUNT>
0

> <PUBCHEM_ISOTOPIC_ATOM_COUNT>
0

> <PUBCHEM_COMPONENT_COUNT>
1

> <PUBCHEM_CACTVS_TAUTO_COUNT>
-1

> <PUBCHEM_COORDINATE_TYPE>
1
5
255

> <PUBCHEM_BONDANNOTATIONS>
13  18  8
13  19  8
18  20  8
19  22  8
20  21  8
20  23  8
21  22  8
26  27  8
26  28  8
27  29  8
28  30  8
29  31  8
30  31  8
11  5  6
7  21  8
7  24  8
9  23  8
9  24  8

$$$$
