5328137
  -OEChem-03202507032D

 69 72  0     0  0  0  0  0  0999 V2000
    2.5981    1.7010    0.0000 Cl  0  0  0  0  0  0  0  0  0  0  0  0
    5.5981    3.4330    0.0000 Cl  0  0  0  0  0  0  0  0  0  0  0  0
    4.5981   -1.2990    0.0000 O   0  0  0  0  0  0  0  0  0  0  0  0
   13.3263    0.6601    0.0000 N   0  0  0  0  0  0  0  0  0  0  0  0
    8.9942    0.1768    0.0000 N   0  0  0  0  0  0  0  0  0  0  0  0
    7.2241    0.1663    0.0000 N   0  0  0  0  0  0  0  0  0  0  0  0
    8.1301    1.7218    0.0000 N   0  0  0  0  0  0  0  0  0  0  0  0
    5.4641    0.2010    0.0000 N   0  0  0  0  0  0  0  0  0  0  0  0
    3.7320    0.2010    0.0000 N   0  0  0  0  0  0  0  0  0  0  0  0
    2.8660   -1.2990    0.0000 N   0  0  0  0  0  0  0  0  0  0  0  0
   12.4583    0.1635    0.0000 C   0  0  0  0  0  0  0  0  0  0  0  0
   11.5942    0.6668    0.0000 C   0  0  0  0  0  0  0  0  0  0  0  0
   10.7263    0.1701    0.0000 C   0  0  0  0  0  0  0  0  0  0  0  0
   14.1903    0.1568    0.0000 C   0  0  0  0  0  0  0  0  0  0  0  0
   13.3301    1.6601    0.0000 C   0  0  0  0  0  0  0  0  0  0  0  0
    9.8622    0.6735    0.0000 C   0  0  0  0  0  0  0  0  0  0  0  0
   15.0583    0.6534    0.0000 C   0  0  0  0  0  0  0  0  0  0  0  0
   14.1981    2.1568    0.0000 C   0  0  0  0  0  0  0  0  0  0  0  0
    8.1301    0.6801    0.0000 C   0  0  0  0  0  0  0  0  0  0  0  0
    6.3301    1.7010    0.0000 C   0  0  0  0  0  0  0  0  0  0  0  0
    6.3301    0.7010    0.0000 C   0  0  0  0  0  0  0  0  0  0  0  0
    4.5981    1.7010    0.0000 C   0  0  0  0  0  0  0  0  0  0  0  0
    5.4641    2.2010    0.0000 C   0  0  0  0  0  0  0  0  0  0  0  0
    4.5981    0.7010    0.0000 C   0  0  0  0  0  0  0  0  0  0  0  0
    7.2241    2.2356    0.0000 C   0  0  0  0  0  0  0  0  0  0  0  0
    4.0981    2.5670    0.0000 C   0  0  0  0  0  0  0  0  0  0  0  0
    3.0981    2.5671    0.0000 C   0  0  0  0  0  0  0  0  0  0  0  0
    4.5981    3.4330    0.0000 C   0  0  0  0  0  0  0  0  0  0  0  0
    2.5981    3.4330    0.0000 C   0  0  0  0  0  0  0  0  0  0  0  0
    4.0981    4.2990    0.0000 C   0  0  0  0  0  0  0  0  0  0  0  0
    3.7320   -0.7990    0.0000 C   0  0  0  0  0  0  0  0  0  0  0  0
    3.0981    4.2990    0.0000 C   0  0  0  0  0  0  0  0  0  0  0  0
    2.8660   -2.2990    0.0000 C   0  0  0  0  0  0  0  0  0  0  0  0
    2.0000   -2.7990    0.0000 C   0  0  0  0  0  0  0  0  0  0  0  0
    3.7320   -2.7990    0.0000 C   0  0  0  0  0  0  0  0  0  0  0  0
    2.0000   -3.7990    0.0000 C   0  0  0  0  0  0  0  0  0  0  0  0
    3.7320   -3.7990    0.0000 C   0  0  0  0  0  0  0  0  0  0  0  0
    2.8660   -4.2990    0.0000 C   0  0  0  0  0  0  0  0  0  0  0  0
   12.0579   -0.3099    0.0000 H   0  0  0  0  0  0  0  0  0  0  0  0
   12.8550   -0.3130    0.0000 H   0  0  0  0  0  0  0  0  0  0  0  0
   11.9946    1.1402    0.0000 H   0  0  0  0  0  0  0  0  0  0  0  0
   11.1975    1.1433    0.0000 H   0  0  0  0  0  0  0  0  0  0  0  0
   10.3259   -0.3033    0.0000 H   0  0  0  0  0  0  0  0  0  0  0  0
   11.1230   -0.3063    0.0000 H   0  0  0  0  0  0  0  0  0  0  0  0
   13.7900   -0.3166    0.0000 H   0  0  0  0  0  0  0  0  0  0  0  0
   14.5870   -0.3197    0.0000 H   0  0  0  0  0  0  0  0  0  0  0  0
   13.1203    2.2435    0.0000 H   0  0  0  0  0  0  0  0  0  0  0  0
   12.7191    1.5548    0.0000 H   0  0  0  0  0  0  0  0  0  0  0  0
   10.2625    1.1469    0.0000 H   0  0  0  0  0  0  0  0  0  0  0  0
    9.4655    1.1500    0.0000 H   0  0  0  0  0  0  0  0  0  0  0  0
   15.3662    0.1153    0.0000 H   0  0  0  0  0  0  0  0  0  0  0  0
   15.5964    0.9614    0.0000 H   0  0  0  0  0  0  0  0  0  0  0  0
   14.7504    1.1916    0.0000 H   0  0  0  0  0  0  0  0  0  0  0  0
   14.5060    1.6186    0.0000 H   0  0  0  0  0  0  0  0  0  0  0  0
   14.7362    2.4647    0.0000 H   0  0  0  0  0  0  0  0  0  0  0  0
   13.8901    2.6949    0.0000 H   0  0  0  0  0  0  0  0  0  0  0  0
    8.9918   -0.4432    0.0000 H   0  0  0  0  0  0  0  0  0  0  0  0
    5.4641    2.8210    0.0000 H   0  0  0  0  0  0  0  0  0  0  0  0
    7.2169    2.8556    0.0000 H   0  0  0  0  0  0  0  0  0  0  0  0
    3.1951    0.5110    0.0000 H   0  0  0  0  0  0  0  0  0  0  0  0
    1.9781    3.4330    0.0000 H   0  0  0  0  0  0  0  0  0  0  0  0
    4.4081    4.8360    0.0000 H   0  0  0  0  0  0  0  0  0  0  0  0
    2.7881    4.8360    0.0000 H   0  0  0  0  0  0  0  0  0  0  0  0
    2.3291   -0.9890    0.0000 H   0  0  0  0  0  0  0  0  0  0  0  0
    1.4631   -2.4890    0.0000 H   0  0  0  0  0  0  0  0  0  0  0  0
    4.2690   -2.4890    0.0000 H   0  0  0  0  0  0  0  0  0  0  0  0
    1.4631   -4.1090    0.0000 H   0  0  0  0  0  0  0  0  0  0  0  0
    4.2690   -4.1090    0.0000 H   0  0  0  0  0  0  0  0  0  0  0  0
    2.8660   -4.9190    0.0000 H   0  0  0  0  0  0  0  0  0  0  0  0
  1 27  1  0  0  0  0
  2 28  1  0  0  0  0
  3 31  2  0  0  0  0
  4 11  1  0  0  0  0
  4 14  1  0  0  0  0
  4 15  1  0  0  0  0
  5 16  1  0  0  0  0
  5 19  1  0  0  0  0
  5 57  1  0  0  0  0
  6 19  2  0  0  0  0
  6 21  1  0  0  0  0
  7 19  1  0  0  0  0
  7 25  2  0  0  0  0
  8 21  2  0  0  0  0
  8 24  1  0  0  0  0
  9 24  1  0  0  0  0
  9 31  1  0  0  0  0
  9 60  1  0  0  0  0
 10 31  1  0  0  0  0
 10 33  1  0  0  0  0
 10 64  1  0  0  0  0
 11 12  1  0  0  0  0
 11 39  1  0  0  0  0
 11 40  1  0  0  0  0
 12 13  1  0  0  0  0
 12 41  1  0  0  0  0
 12 42  1  0  0  0  0
 13 16  1  0  0  0  0
 13 43  1  0  0  0  0
 13 44  1  0  0  0  0
 14 17  1  0  0  0  0
 14 45  1  0  0  0  0
 14 46  1  0  0  0  0
 15 18  1  0  0  0  0
 15 47  1  0  0  0  0
 15 48  1  0  0  0  0
 16 49  1  0  0  0  0
 16 50  1  0  0  0  0
 17 51  1  0  0  0  0
 17 52  1  0  0  0  0
 17 53  1  0  0  0  0
 18 54  1  0  0  0  0
 18 55  1  0  0  0  0
 18 56  1  0  0  0  0
 20 21  1  0  0  0  0
 20 23  2  0  0  0  0
 20 25  1  0  0  0  0
 22 23  1  0  0  0  0
 22 24  2  0  0  0  0
 22 26  1  0  0  0  0
 23 58  1  0  0  0  0
 25 59  1  0  0  0  0
 26 27  2  0  0  0  0
 26 28  1  0  0  0  0
 27 29  1  0  0  0  0
 28 30  2  0  0  0  0
 29 32  2  0  0  0  0
 29 61  1  0  0  0  0
 30 32  1  0  0  0  0
 30 62  1  0  0  0  0
 32 63  1  0  0  0  0
 33 34  2  0  0  0  0
 33 35  1  0  0  0  0
 34 36  1  0  0  0  0
 34 65  1  0  0  0  0
 35 37  2  0  0  0  0
 35 66  1  0  0  0  0
 36 38  2  0  0  0  0
 36 67  1  0  0  0  0
 37 38  1  0  0  0  0
 37 68  1  0  0  0  0
 38 69  1  0  0  0  0
M  END
> <PUBCHEM_COMPOUND_CID>
5328137

> <PUBCHEM_COMPOUND_CANONICALIZED>
1

> <PUBCHEM_CACTVS_COMPLEXITY>
699

> <PUBCHEM_CACTVS_HBOND_ACCEPTOR>
6

> <PUBCHEM_CACTVS_HBOND_DONOR>
3

> <PUBCHEM_CACTVS_ROTATABLE_BOND>
11

> <PUBCHEM_CACTVS_SUBSKEYS>
AAADceB7oAAGAAAAAAAAAAAAAAAAAAAAAAA8eIEAAAAAAACx/AAAHgIQAAAADArBGyQ/8N/IEACoAjZndACCgCkxB6AJ2KAoZpiIKOLB29GEJAholQLIyCcQgMAOgAAAAACBAAAAAAAAAQIAAAAAAAAAAA==

> <PUBCHEM_IUPAC_OPENEYE_NAME>
1-[6-(2,6-dichlorophenyl)-2-[4-(diethylamino)butylamino]pyrido[2,3-d]pyrimidin-7-yl]-3-phenyl-urea

> <PUBCHEM_IUPAC_CAS_NAME>
1-[6-(2,6-dichlorophenyl)-2-[4-(diethylamino)butylamino]-7-pyrido[2,3-d]pyrimidinyl]-3-phenylurea

> <PUBCHEM_IUPAC_NAME_MARKUP>
1-[6-(2,6-dichlorophenyl)-2-[4-(diethylamino)butylamino]pyrido[2,3-d]pyrimidin-7-yl]-3-phenylurea

> <PUBCHEM_IUPAC_NAME>
1-[6-(2,6-dichlorophenyl)-2-[4-(diethylamino)butylamino]pyrido[2,3-d]pyrimidin-7-yl]-3-phenylurea

> <PUBCHEM_IUPAC_SYSTEMATIC_NAME>
1-[6-[2,6-bis(chloranyl)phenyl]-2-[4-(diethylamino)butylamino]pyrido[2,3-d]pyrimidin-7-yl]-3-phenyl-urea

> <PUBCHEM_IUPAC_TRADITIONAL_NAME>
1-[6-(2,6-dichlorophenyl)-2-[4-(diethylamino)butylamino]pyrido[2,3-d]pyrimidin-7-yl]-3-phenyl-urea

> <PUBCHEM_IUPAC_INCHI>
InChI=1S/C28H31Cl2N7O/c1-3-37(4-2)16-9-8-15-31-27-32-18-19-17-21(24-22(29)13-10-14-23(24)30)26(34-25(19)35-27)36-28(38)33-20-11-6-5-7-12-20/h5-7,10-14,17-18H,3-4,8-9,15-16H2,1-2H3,(H3,31,32,33,34,35,36,38)

> <PUBCHEM_IUPAC_INCHIKEY>
LYJIVFCOOJRVBF-UHFFFAOYSA-N

> <PUBCHEM_XLOGP3_AA>
6.4

> <PUBCHEM_EXACT_MASS>
551.1967140

> <PUBCHEM_MOLECULAR_FORMULA>
C28H31Cl2N7O

> <PUBCHEM_MOLECULAR_WEIGHT>
552.5

> <PUBCHEM_SMILES>
CCN(CC)CCCCNC1=NC2=NC(=C(C=C2C=N1)C3=C(C=CC=C3Cl)Cl)NC(=O)NC4=CC=CC=C4

> <PUBCHEM_OPENEYE_CAN_SMILES>
CCN(CC)CCCCNC1=NC2=NC(=C(C=C2C=N1)C3=C(C=CC=C3Cl)Cl)NC(=O)NC4=CC=CC=C4

> <PUBCHEM_OPENEYE_ISO_SMILES>
CCN(CC)CCCCNC1=NC2=NC(=C(C=C2C=N1)C3=C(C=CC=C3Cl)Cl)NC(=O)NC4=CC=CC=C4

> <PUBCHEM_CACTVS_TPSA>
95.1

> <PUBCHEM_MONOISOTOPIC_WEIGHT>
551.1967140

> <PUBCHEM_TOTAL_CHARGE>
0

> <PUBCHEM_HEAVY_ATOM_COUNT>
38

> <PUBCHEM_ATOM_DEF_STEREO_COUNT>
0

> <PUBCHEM_ATOM_UDEF_STEREO_COUNT>
0

> <PUBCHEM_BOND_DEF_STEREO_COUNT>
0

> <PUBCHEM_BOND_UDEF_STEREO_COUNT>
0

> <PUBCHEM_ISOTOPIC_ATOM_COUNT>
0

> <PUBCHEM_COMPONENT_COUNT>
1

> <PUBCHEM_CACTVS_TAUTO_COUNT>
-1

> <PUBCHEM_COORDINATE_TYPE>
1
5
255

> <PUBCHEM_BONDANNOTATIONS>
20  21  8
20  23  8
20  25  8
22  23  8
22  24  8
26  27  8
26  28  8
27  29  8
28  30  8
29  32  8
30  32  8
33  34  8
33  35  8
34  36  8
35  37  8
36  38  8
37  38  8
6  19  8
6  21  8
7  19  8
7  25  8
8  21  8
8  24  8

$$$$
