25164470
  -OEChem-03202501592D

 56 60  0     0  0  0  0  0  0999 V2000
    9.9344   -2.8222    0.0000 O   0  0  0  0  0  0  0  0  0  0  0  0
   13.5378   -2.6965    0.0000 N   0  0  0  0  0  0  0  0  0  0  0  0
   10.2916   -1.1274    0.0000 N   0  0  0  0  0  0  0  0  0  0  0  0
   10.8752   -0.3226    0.0000 N   0  0  0  0  0  0  0  0  0  0  0  0
   10.6022    1.4326    0.0000 N   0  0  0  0  0  0  0  0  0  0  0  0
    5.1646    1.0138    0.0000 N   0  0  0  0  0  0  0  0  0  0  0  0
    6.6428    1.6719    0.0000 N   0  0  0  0  0  0  0  0  0  0  0  0
    5.6646    1.8798    0.0000 N   0  0  0  0  0  0  0  0  0  0  0  0
   11.5808   -2.2841    0.0000 C   0  0  0  0  0  0  0  0  0  0  0  0
   12.2486   -1.5398    0.0000 C   0  0  0  0  0  0  0  0  0  0  0  0
   11.8914   -3.2346    0.0000 C   0  0  0  0  0  0  0  0  0  0  0  0
   13.2271   -1.7460    0.0000 C   0  0  0  0  0  0  0  0  0  0  0  0
   12.8699   -3.4408    0.0000 C   0  0  0  0  0  0  0  0  0  0  0  0
   10.6022   -2.0779    0.0000 C   0  0  0  0  0  0  0  0  0  0  0  0
   14.5163   -2.9028    0.0000 C   0  0  0  0  0  0  0  0  0  0  0  0
    9.3454   -0.8226    0.0000 C   0  0  0  0  0  0  0  0  0  0  0  0
    9.3454    0.1774    0.0000 C   0  0  0  0  0  0  0  0  0  0  0  0
   10.2916    0.4821    0.0000 C   0  0  0  0  0  0  0  0  0  0  0  0
    8.4793   -1.3226    0.0000 C   0  0  0  0  0  0  0  0  0  0  0  0
    8.4793    0.6774    0.0000 C   0  0  0  0  0  0  0  0  0  0  0  0
    7.6133    0.1774    0.0000 C   0  0  0  0  0  0  0  0  0  0  0  0
    7.6133   -0.8226    0.0000 C   0  0  0  0  0  0  0  0  0  0  0  0
    6.7473    0.6774    0.0000 C   0  0  0  0  0  0  0  0  0  0  0  0
    5.8338    0.2706    0.0000 C   0  0  0  0  0  0  0  0  0  0  0  0
    4.1701    0.9093    0.0000 C   0  0  0  0  0  0  0  0  0  0  0  0
    3.5823    1.7183    0.0000 C   0  0  0  0  0  0  0  0  0  0  0  0
    3.9890    2.6318    0.0000 C   0  0  0  0  0  0  0  0  0  0  0  0
    2.5878    1.6137    0.0000 C   0  0  0  0  0  0  0  0  0  0  0  0
    3.4013    3.4408    0.0000 C   0  0  0  0  0  0  0  0  0  0  0  0
    2.0000    2.4228    0.0000 C   0  0  0  0  0  0  0  0  0  0  0  0
    2.4067    3.3363    0.0000 C   0  0  0  0  0  0  0  0  0  0  0  0
   11.3881   -1.6948    0.0000 H   0  0  0  0  0  0  0  0  0  0  0  0
   12.4799   -0.9645    0.0000 H   0  0  0  0  0  0  0  0  0  0  0  0
   11.7222   -1.2122    0.0000 H   0  0  0  0  0  0  0  0  0  0  0  0
   11.2776   -3.3220    0.0000 H   0  0  0  0  0  0  0  0  0  0  0  0
   11.8709   -3.8543    0.0000 H   0  0  0  0  0  0  0  0  0  0  0  0
   13.8409   -1.6587    0.0000 H   0  0  0  0  0  0  0  0  0  0  0  0
   13.2477   -1.1264    0.0000 H   0  0  0  0  0  0  0  0  0  0  0  0
   12.6387   -4.0161    0.0000 H   0  0  0  0  0  0  0  0  0  0  0  0
   13.3963   -3.7685    0.0000 H   0  0  0  0  0  0  0  0  0  0  0  0
   14.3884   -3.5094    0.0000 H   0  0  0  0  0  0  0  0  0  0  0  0
   15.1229   -3.0306    0.0000 H   0  0  0  0  0  0  0  0  0  0  0  0
   14.6441   -2.2961    0.0000 H   0  0  0  0  0  0  0  0  0  0  0  0
    8.4793   -1.9426    0.0000 H   0  0  0  0  0  0  0  0  0  0  0  0
    8.4793    1.2974    0.0000 H   0  0  0  0  0  0  0  0  0  0  0  0
    7.0764   -1.1326    0.0000 H   0  0  0  0  0  0  0  0  0  0  0  0
   11.2089    1.5605    0.0000 H   0  0  0  0  0  0  0  0  0  0  0  0
   10.1882    1.8941    0.0000 H   0  0  0  0  0  0  0  0  0  0  0  0
    5.7048   -0.3358    0.0000 H   0  0  0  0  0  0  0  0  0  0  0  0
    3.6128    0.6375    0.0000 H   0  0  0  0  0  0  0  0  0  0  0  0
    4.3410    0.3133    0.0000 H   0  0  0  0  0  0  0  0  0  0  0  0
    4.6056    2.6966    0.0000 H   0  0  0  0  0  0  0  0  0  0  0  0
    2.3356    1.0474    0.0000 H   0  0  0  0  0  0  0  0  0  0  0  0
    3.6534    4.0072    0.0000 H   0  0  0  0  0  0  0  0  0  0  0  0
    1.3834    2.3580    0.0000 H   0  0  0  0  0  0  0  0  0  0  0  0
    2.0423    3.8379    0.0000 H   0  0  0  0  0  0  0  0  0  0  0  0
  1 14  2  0  0  0  0
  2 12  1  0  0  0  0
  2 13  1  0  0  0  0
  2 15  1  0  0  0  0
  3  4  1  0  0  0  0
  3 14  1  0  0  0  0
  3 16  1  0  0  0  0
  4 18  2  0  0  0  0
  5 18  1  0  0  0  0
  5 47  1  0  0  0  0
  5 48  1  0  0  0  0
  6  8  1  0  0  0  0
  6 24  1  0  0  0  0
  6 25  1  0  0  0  0
  7  8  2  0  0  0  0
  7 23  1  0  0  0  0
  9 10  1  0  0  0  0
  9 11  1  0  0  0  0
  9 14  1  0  0  0  0
  9 32  1  0  0  0  0
 10 12  1  0  0  0  0
 10 33  1  0  0  0  0
 10 34  1  0  0  0  0
 11 13  1  0  0  0  0
 11 35  1  0  0  0  0
 11 36  1  0  0  0  0
 12 37  1  0  0  0  0
 12 38  1  0  0  0  0
 13 39  1  0  0  0  0
 13 40  1  0  0  0  0
 15 41  1  0  0  0  0
 15 42  1  0  0  0  0
 15 43  1  0  0  0  0
 16 17  2  0  0  0  0
 16 19  1  0  0  0  0
 17 18  1  0  0  0  0
 17 20  1  0  0  0  0
 19 22  2  0  0  0  0
 19 44  1  0  0  0  0
 20 21  2  0  0  0  0
 20 45  1  0  0  0  0
 21 22  1  0  0  0  0
 21 23  1  0  0  0  0
 22 46  1  0  0  0  0
 23 24  2  0  0  0  0
 24 49  1  0  0  0  0
 25 26  1  0  0  0  0
 25 50  1  0  0  0  0
 25 51  1  0  0  0  0
 26 27  2  0  0  0  0
 26 28  1  0  0  0  0
 27 29  1  0  0  0  0
 27 52  1  0  0  0  0
 28 30  2  0  0  0  0
 28 53  1  0  0  0  0
 29 31  2  0  0  0  0
 29 54  1  0  0  0  0
 30 31  1  0  0  0  0
 30 55  1  0  0  0  0
 31 56  1  0  0  0  0
M  END
> <PUBCHEM_COMPOUND_CID>
25164470

> <PUBCHEM_COMPOUND_CANONICALIZED>
1

> <PUBCHEM_CACTVS_COMPLEXITY>
619

> <PUBCHEM_CACTVS_HBOND_ACCEPTOR>
6

> <PUBCHEM_CACTVS_HBOND_DONOR>
1

> <PUBCHEM_CACTVS_ROTATABLE_BOND>
4

> <PUBCHEM_CACTVS_SUBSKEYS>
AAADceB7oAAAAAAAAAAAAAAAAAAAAWLAAAA8YIAAAAAAAFgB/AAAHgAYAAAADQjBngQ/8PNIAACqAzd3dACSBAYxkgAe2CE4dJgIYLLA0dGUpAhwjADIyAcUgMAOCAACAAACAAAQAAQAAAQAAAAAAAAAAA==

> <PUBCHEM_IUPAC_OPENEYE_NAME>
[3-amino-5-(1-benzyltriazol-4-yl)indazol-1-yl]-(1-methyl-4-piperidyl)methanone

> <PUBCHEM_IUPAC_CAS_NAME>
[3-amino-5-[1-(phenylmethyl)-4-triazolyl]-1-indazolyl]-(1-methyl-4-piperidinyl)methanone

> <PUBCHEM_IUPAC_NAME_MARKUP>
[3-amino-5-(1-benzyltriazol-4-yl)indazol-1-yl]-(1-methylpiperidin-4-yl)methanone

> <PUBCHEM_IUPAC_NAME>
[3-amino-5-(1-benzyltriazol-4-yl)indazol-1-yl]-(1-methylpiperidin-4-yl)methanone

> <PUBCHEM_IUPAC_SYSTEMATIC_NAME>
[3-azanyl-5-[1-(phenylmethyl)-1,2,3-triazol-4-yl]indazol-1-yl]-(1-methylpiperidin-4-yl)methanone

> <PUBCHEM_IUPAC_TRADITIONAL_NAME>
[3-amino-5-(1-benzyltriazol-4-yl)indazol-1-yl]-(1-methyl-4-piperidyl)methanone

> <PUBCHEM_IUPAC_INCHI>
InChI=1S/C23H25N7O/c1-28-11-9-17(10-12-28)23(31)30-21-8-7-18(13-19(21)22(24)26-30)20-15-29(27-25-20)14-16-5-3-2-4-6-16/h2-8,13,15,17H,9-12,14H2,1H3,(H2,24,26)

> <PUBCHEM_IUPAC_INCHIKEY>
HWGZXYUOXGVACR-UHFFFAOYSA-N

> <PUBCHEM_XLOGP3_AA>
2.6

> <PUBCHEM_EXACT_MASS>
415.21205845

> <PUBCHEM_MOLECULAR_FORMULA>
C23H25N7O

> <PUBCHEM_MOLECULAR_WEIGHT>
415.5

> <PUBCHEM_SMILES>
CN1CCC(CC1)C(=O)N2C3=C(C=C(C=C3)C4=CN(N=N4)CC5=CC=CC=C5)C(=N2)N

> <PUBCHEM_OPENEYE_CAN_SMILES>
CN1CCC(CC1)C(=O)N2C3=C(C=C(C=C3)C4=CN(N=N4)CC5=CC=CC=C5)C(=N2)N

> <PUBCHEM_OPENEYE_ISO_SMILES>
CN1CCC(CC1)C(=O)N2C3=C(C=C(C=C3)C4=CN(N=N4)CC5=CC=CC=C5)C(=N2)N

> <PUBCHEM_CACTVS_TPSA>
94.9

> <PUBCHEM_MONOISOTOPIC_WEIGHT>
415.21205845

> <PUBCHEM_TOTAL_CHARGE>
0

> <PUBCHEM_HEAVY_ATOM_COUNT>
31

> <PUBCHEM_ATOM_DEF_STEREO_COUNT>
0

> <PUBCHEM_ATOM_UDEF_STEREO_COUNT>
0

> <PUBCHEM_BOND_DEF_STEREO_COUNT>
0

> <PUBCHEM_BOND_UDEF_STEREO_COUNT>
0

> <PUBCHEM_ISOTOPIC_ATOM_COUNT>
0

> <PUBCHEM_COMPONENT_COUNT>
1

> <PUBCHEM_CACTVS_TAUTO_COUNT>
-1

> <PUBCHEM_COORDINATE_TYPE>
1
5
255

> <PUBCHEM_BONDANNOTATIONS>
16  17  8
16  19  8
17  18  8
17  20  8
19  22  8
20  21  8
21  22  8
23  24  8
26  27  8
26  28  8
27  29  8
28  30  8
29  31  8
3  16  8
3  4  8
30  31  8
4  18  8
6  24  8
6  8  8
7  23  8
7  8  8

$$$$
