11516978
  -OEChem-03202505582D

 47 49  0     1  0  0  0  0  0999 V2000
   11.1787   -3.5272    0.0000 Cl  0  0  0  0  0  0  0  0  0  0  0  0
    9.4584   -2.5072    0.0000 F   0  0  0  0  0  0  0  0  0  0  0  0
    6.0010    2.5272    0.0000 O   0  0  0  0  0  0  0  0  0  0  0  0
    3.4030    2.0272    0.0000 O   0  0  0  0  0  0  0  0  0  0  0  0
    5.1350    1.0272    0.0000 N   0  0  0  0  0  0  0  0  0  0  0  0
    9.4815   -0.5074    0.0000 N   0  0  0  0  0  0  0  0  0  0  0  0
    9.4931    2.5619    0.0000 N   0  0  0  0  0  0  0  0  0  0  0  0
   10.3991    1.0064    0.0000 N   0  0  0  0  0  0  0  0  0  0  0  0
    2.5369    0.5272    0.0000 N   0  0  0  0  0  0  0  0  0  0  0  0
    6.8671    1.0272    0.0000 C   0  0  0  0  0  0  0  0  0  0  0  0
    6.0010    0.5272    0.0000 C   0  0  0  0  0  0  0  0  0  0  0  0
    8.5991    1.0272    0.0000 C   0  0  0  0  0  0  0  0  0  0  0  0
    4.2690    0.5272    0.0000 C   0  0  2  0  0  0  0  0  0  0  0  0
    7.7331    0.5272    0.0000 C   0  0  0  0  0  0  0  0  0  0  0  0
    6.8671    2.0272    0.0000 C   0  0  0  0  0  0  0  0  0  0  0  0
    8.5991    2.0272    0.0000 C   0  0  0  0  0  0  0  0  0  0  0  0
    7.7331    2.5272    0.0000 C   0  0  0  0  0  0  0  0  0  0  0  0
    9.4931    0.4926    0.0000 C   0  0  0  0  0  0  0  0  0  0  0  0
    4.2690   -0.4728    0.0000 C   0  0  0  0  0  0  0  0  0  0  0  0
    3.4030    1.0272    0.0000 C   0  0  0  0  0  0  0  0  0  0  0  0
   10.3417   -1.0174    0.0000 C   0  0  0  0  0  0  0  0  0  0  0  0
   10.3991    2.0480    0.0000 C   0  0  0  0  0  0  0  0  0  0  0  0
   10.3301   -2.0173    0.0000 C   0  0  0  0  0  0  0  0  0  0  0  0
   11.2134   -0.5274    0.0000 C   0  0  0  0  0  0  0  0  0  0  0  0
    6.0010    3.5272    0.0000 C   0  0  0  0  0  0  0  0  0  0  0  0
   11.1903   -2.5273    0.0000 C   0  0  0  0  0  0  0  0  0  0  0  0
   12.0736   -1.0374    0.0000 C   0  0  0  0  0  0  0  0  0  0  0  0
   12.0620   -2.0373    0.0000 C   0  0  0  0  0  0  0  0  0  0  0  0
    5.6025    0.0523    0.0000 H   0  0  0  0  0  0  0  0  0  0  0  0
    6.3996    0.0523    0.0000 H   0  0  0  0  0  0  0  0  0  0  0  0
    4.8059    0.2172    0.0000 H   0  0  0  0  0  0  0  0  0  0  0  0
    7.7331   -0.0928    0.0000 H   0  0  0  0  0  0  0  0  0  0  0  0
    5.1350    1.6472    0.0000 H   0  0  0  0  0  0  0  0  0  0  0  0
    7.7331    3.1472    0.0000 H   0  0  0  0  0  0  0  0  0  0  0  0
    3.6490   -0.4728    0.0000 H   0  0  0  0  0  0  0  0  0  0  0  0
    4.2690   -1.0928    0.0000 H   0  0  0  0  0  0  0  0  0  0  0  0
    4.8890   -0.4728    0.0000 H   0  0  0  0  0  0  0  0  0  0  0  0
    8.9410   -0.8112    0.0000 H   0  0  0  0  0  0  0  0  0  0  0  0
   10.9349    2.3601    0.0000 H   0  0  0  0  0  0  0  0  0  0  0  0
   11.2206    0.0925    0.0000 H   0  0  0  0  0  0  0  0  0  0  0  0
    6.6210    3.5272    0.0000 H   0  0  0  0  0  0  0  0  0  0  0  0
    6.0010    4.1472    0.0000 H   0  0  0  0  0  0  0  0  0  0  0  0
    5.3810    3.5272    0.0000 H   0  0  0  0  0  0  0  0  0  0  0  0
    2.0000    0.8372    0.0000 H   0  0  0  0  0  0  0  0  0  0  0  0
    2.5369   -0.0928    0.0000 H   0  0  0  0  0  0  0  0  0  0  0  0
   12.6141   -0.7336    0.0000 H   0  0  0  0  0  0  0  0  0  0  0  0
   12.5954   -2.3535    0.0000 H   0  0  0  0  0  0  0  0  0  0  0  0
  1 26  1  0  0  0  0
  2 23  1  0  0  0  0
  3 15  1  0  0  0  0
  3 25  1  0  0  0  0
  4 20  2  0  0  0  0
  5 11  1  0  0  0  0
 13  5  1  6  0  0  0
  5 33  1  0  0  0  0
  6 18  1  0  0  0  0
  6 21  1  0  0  0  0
  6 38  1  0  0  0  0
  7 16  1  0  0  0  0
  7 22  2  0  0  0  0
  8 18  2  0  0  0  0
  8 22  1  0  0  0  0
  9 20  1  0  0  0  0
  9 44  1  0  0  0  0
  9 45  1  0  0  0  0
 10 11  1  0  0  0  0
 10 14  2  0  0  0  0
 10 15  1  0  0  0  0
 11 29  1  0  0  0  0
 11 30  1  0  0  0  0
 12 14  1  0  0  0  0
 12 16  2  0  0  0  0
 12 18  1  0  0  0  0
 13 19  1  0  0  0  0
 13 20  1  0  0  0  0
 13 31  1  0  0  0  0
 14 32  1  0  0  0  0
 15 17  2  0  0  0  0
 16 17  1  0  0  0  0
 17 34  1  0  0  0  0
 19 35  1  0  0  0  0
 19 36  1  0  0  0  0
 19 37  1  0  0  0  0
 21 23  2  0  0  0  0
 21 24  1  0  0  0  0
 22 39  1  0  0  0  0
 23 26  1  0  0  0  0
 24 27  2  0  0  0  0
 24 40  1  0  0  0  0
 25 41  1  0  0  0  0
 25 42  1  0  0  0  0
 25 43  1  0  0  0  0
 26 28  2  0  0  0  0
 27 28  1  0  0  0  0
 27 46  1  0  0  0  0
 28 47  1  0  0  0  0
M  END
> <PUBCHEM_COMPOUND_CID>
11516978

> <PUBCHEM_COMPOUND_CANONICALIZED>
1

> <PUBCHEM_CACTVS_COMPLEXITY>
531

> <PUBCHEM_CACTVS_HBOND_ACCEPTOR>
7

> <PUBCHEM_CACTVS_HBOND_DONOR>
3

> <PUBCHEM_CACTVS_ROTATABLE_BOND>
7

> <PUBCHEM_CACTVS_SUBSKEYS>
AAADceB7sQAEAAAAAAAAAAAAAAAAAAAAAAA8YIAAAAAAAACx9AAAHwIQAAAADC7Bni439vbIFACoAydzdACCiCkxJ6AJ2KG+bpiMbuLF+/uUNChu0BvI6CeQ0GMOKAACAgIKAABQAAQEBBQAAAAAAAAAAA==

> <PUBCHEM_IUPAC_OPENEYE_NAME>
(2R)-2-[[4-(3-chloro-2-fluoro-anilino)-7-methoxy-quinazolin-6-yl]methylamino]propanamide

> <PUBCHEM_IUPAC_CAS_NAME>
(2R)-2-[[4-(3-chloro-2-fluoroanilino)-7-methoxy-6-quinazolinyl]methylamino]propanamide

> <PUBCHEM_IUPAC_NAME_MARKUP>
(2<I>R</I>)-2-[[4-(3-chloro-2-fluoroanilino)-7-methoxyquinazolin-6-yl]methylamino]propanamide

> <PUBCHEM_IUPAC_NAME>
(2R)-2-[[4-(3-chloro-2-fluoroanilino)-7-methoxyquinazolin-6-yl]methylamino]propanamide

> <PUBCHEM_IUPAC_SYSTEMATIC_NAME>
(2R)-2-[[4-[(3-chloranyl-2-fluoranyl-phenyl)amino]-7-methoxy-quinazolin-6-yl]methylamino]propanamide

> <PUBCHEM_IUPAC_TRADITIONAL_NAME>
(2R)-2-[[4-(3-chloro-2-fluoro-anilino)-7-methoxy-quinazolin-6-yl]methylamino]propionamide

> <PUBCHEM_IUPAC_INCHI>
InChI=1S/C19H19ClFN5O2/c1-10(18(22)27)23-8-11-6-12-15(7-16(11)28-2)24-9-25-19(12)26-14-5-3-4-13(20)17(14)21/h3-7,9-10,23H,8H2,1-2H3,(H2,22,27)(H,24,25,26)/t10-/m1/s1

> <PUBCHEM_IUPAC_INCHIKEY>
KXECKMQQRGBPLK-SNVBAGLBSA-N

> <PUBCHEM_XLOGP3_AA>
2.8

> <PUBCHEM_EXACT_MASS>
403.1211307

> <PUBCHEM_MOLECULAR_FORMULA>
C19H19ClFN5O2

> <PUBCHEM_MOLECULAR_WEIGHT>
403.8

> <PUBCHEM_SMILES>
C[C@H](C(=O)N)NCC1=CC2=C(C=C1OC)N=CN=C2NC3=C(C(=CC=C3)Cl)F

> <PUBCHEM_OPENEYE_CAN_SMILES>
CC(C(=O)N)NCC1=CC2=C(C=C1OC)N=CN=C2NC3=C(C(=CC=C3)Cl)F

> <PUBCHEM_OPENEYE_ISO_SMILES>
C[C@H](C(=O)N)NCC1=CC2=C(C=C1OC)N=CN=C2NC3=C(C(=CC=C3)Cl)F

> <PUBCHEM_CACTVS_TPSA>
102

> <PUBCHEM_MONOISOTOPIC_WEIGHT>
403.1211307

> <PUBCHEM_TOTAL_CHARGE>
0

> <PUBCHEM_HEAVY_ATOM_COUNT>
28

> <PUBCHEM_ATOM_DEF_STEREO_COUNT>
1

> <PUBCHEM_ATOM_UDEF_STEREO_COUNT>
0

> <PUBCHEM_BOND_DEF_STEREO_COUNT>
0

> <PUBCHEM_BOND_UDEF_STEREO_COUNT>
0

> <PUBCHEM_ISOTOPIC_ATOM_COUNT>
0

> <PUBCHEM_COMPONENT_COUNT>
1

> <PUBCHEM_CACTVS_TAUTO_COUNT>
-1

> <PUBCHEM_COORDINATE_TYPE>
1
5
255

> <PUBCHEM_BONDANNOTATIONS>
10  14  8
10  15  8
12  14  8
12  16  8
12  18  8
15  17  8
16  17  8
21  23  8
21  24  8
23  26  8
24  27  8
26  28  8
27  28  8
13  5  6
7  16  8
7  22  8
8  18  8
8  22  8

$$$$
