8515
  -OEChem-03202507152D

 25 28  0     0  0  0  0  0  0999 V2000
    4.6660    2.2333    0.0000 O   0  0  0  0  0  0  0  0  0  0  0  0
    3.3073   -1.7106    0.0000 N   0  0  0  0  0  0  0  0  0  0  0  0
    4.3009   -1.6910    0.0000 N   0  0  0  0  0  0  0  0  0  0  0  0
    3.8000   -0.2667    0.0000 C   0  0  0  0  0  0  0  0  0  0  0  0
    4.6660   -0.7667    0.0000 C   0  0  0  0  0  0  0  0  0  0  0  0
    3.8000    0.7333    0.0000 C   0  0  0  0  0  0  0  0  0  0  0  0
    5.5321   -0.2667    0.0000 C   0  0  0  0  0  0  0  0  0  0  0  0
    2.9061   -0.8014    0.0000 C   0  0  0  0  0  0  0  0  0  0  0  0
    5.5321    0.7333    0.0000 C   0  0  0  0  0  0  0  0  0  0  0  0
    4.6660    1.2333    0.0000 C   0  0  0  0  0  0  0  0  0  0  0  0
    2.9061    1.2680    0.0000 C   0  0  0  0  0  0  0  0  0  0  0  0
    2.0000   -0.2875    0.0000 C   0  0  0  0  0  0  0  0  0  0  0  0
    6.4260   -0.8014    0.0000 C   0  0  0  0  0  0  0  0  0  0  0  0
    6.4260    1.2680    0.0000 C   0  0  0  0  0  0  0  0  0  0  0  0
    2.0000    0.7541    0.0000 C   0  0  0  0  0  0  0  0  0  0  0  0
    7.3321   -0.2875    0.0000 C   0  0  0  0  0  0  0  0  0  0  0  0
    7.3321    0.7541    0.0000 C   0  0  0  0  0  0  0  0  0  0  0  0
    2.9132    1.8879    0.0000 H   0  0  0  0  0  0  0  0  0  0  0  0
    2.9739   -2.2333    0.0000 H   0  0  0  0  0  0  0  0  0  0  0  0
    1.4643   -0.5996    0.0000 H   0  0  0  0  0  0  0  0  0  0  0  0
    6.4188   -1.4213    0.0000 H   0  0  0  0  0  0  0  0  0  0  0  0
    6.4188    1.8879    0.0000 H   0  0  0  0  0  0  0  0  0  0  0  0
    1.4643    1.0662    0.0000 H   0  0  0  0  0  0  0  0  0  0  0  0
    7.8678   -0.5996    0.0000 H   0  0  0  0  0  0  0  0  0  0  0  0
    7.8678    1.0662    0.0000 H   0  0  0  0  0  0  0  0  0  0  0  0
  1 10  2  0  0  0  0
  2  3  1  0  0  0  0
  2  8  1  0  0  0  0
  2 19  1  0  0  0  0
  3  5  2  0  0  0  0
  4  5  1  0  0  0  0
  4  6  2  0  0  0  0
  4  8  1  0  0  0  0
  5  7  1  0  0  0  0
  6 10  1  0  0  0  0
  6 11  1  0  0  0  0
  7  9  1  0  0  0  0
  7 13  2  0  0  0  0
  8 12  2  0  0  0  0
  9 10  1  0  0  0  0
  9 14  2  0  0  0  0
 11 15  2  0  0  0  0
 11 18  1  0  0  0  0
 12 15  1  0  0  0  0
 12 20  1  0  0  0  0
 13 16  1  0  0  0  0
 13 21  1  0  0  0  0
 14 17  1  0  0  0  0
 14 22  1  0  0  0  0
 15 23  1  0  0  0  0
 16 17  2  0  0  0  0
 16 24  1  0  0  0  0
 17 25  1  0  0  0  0
M  END
> <PUBCHEM_COMPOUND_CID>
8515

> <PUBCHEM_COMPOUND_CANONICALIZED>
1

> <PUBCHEM_CACTVS_COMPLEXITY>
343

> <PUBCHEM_CACTVS_HBOND_ACCEPTOR>
2

> <PUBCHEM_CACTVS_HBOND_DONOR>
1

> <PUBCHEM_CACTVS_ROTATABLE_BOND>
0

> <PUBCHEM_CACTVS_SUBSKEYS>
AAADccBzIAAAAAAAAAAAAAAAAAAAAWAAAAAwYMAAAAAAAFjB9AAAHgAYAAAADAyBngAwwPBjAACqA6RyQACSBAAkAgAYuSEwZNgIILKA1dGApQBgmAAIyYcciMCOgAAAQAASAACAAASAACQAAAAAAAAAAA==

> <PUBCHEM_IUPAC_OPENEYE_NAME>
14,15-diazatetracyclo[7.6.1.02,7.013,16]hexadeca-1(15),2,4,6,9(16),10,12-heptaen-8-one

> <PUBCHEM_IUPAC_CAS_NAME>
14,15-diazatetracyclo[7.6.1.02,7.013,16]hexadeca-1(15),2,4,6,9(16),10,12-heptaen-8-one

> <PUBCHEM_IUPAC_NAME_MARKUP>
14,15-diazatetracyclo[7.6.1.0<SUP>2,7</SUP>.0<SUP>13,16</SUP>]hexadeca-1(15),2,4,6,9(16),10,12-heptaen-8-one

> <PUBCHEM_IUPAC_NAME>
14,15-diazatetracyclo[7.6.1.02,7.013,16]hexadeca-1(15),2,4,6,9(16),10,12-heptaen-8-one

> <PUBCHEM_IUPAC_SYSTEMATIC_NAME>
14,15-diazatetracyclo[7.6.1.02,7.013,16]hexadeca-1(15),2,4,6,9(16),10,12-heptaen-8-one

> <PUBCHEM_IUPAC_TRADITIONAL_NAME>
14,15-diazatetracyclo[7.6.1.02,7.013,16]hexadeca-1(15),2,4,6,9(16),10,12-heptaen-8-one

> <PUBCHEM_IUPAC_INCHI>
InChI=1S/C14H8N2O/c17-14-9-5-2-1-4-8(9)13-12-10(14)6-3-7-11(12)15-16-13/h1-7H,(H,15,16)

> <PUBCHEM_IUPAC_INCHIKEY>
ACPOUJIDANTYHO-UHFFFAOYSA-N

> <PUBCHEM_XLOGP3_AA>
2.7

> <PUBCHEM_EXACT_MASS>
220.063662883

> <PUBCHEM_MOLECULAR_FORMULA>
C14H8N2O

> <PUBCHEM_MOLECULAR_WEIGHT>
220.23

> <PUBCHEM_SMILES>
C1=CC=C2C(=C1)C3=NNC4=CC=CC(=C43)C2=O

> <PUBCHEM_OPENEYE_CAN_SMILES>
C1=CC=C2C(=C1)C3=NNC4=CC=CC(=C43)C2=O

> <PUBCHEM_OPENEYE_ISO_SMILES>
C1=CC=C2C(=C1)C3=NNC4=CC=CC(=C43)C2=O

> <PUBCHEM_CACTVS_TPSA>
45.8

> <PUBCHEM_MONOISOTOPIC_WEIGHT>
220.063662883

> <PUBCHEM_TOTAL_CHARGE>
0

> <PUBCHEM_HEAVY_ATOM_COUNT>
17

> <PUBCHEM_ATOM_DEF_STEREO_COUNT>
0

> <PUBCHEM_ATOM_UDEF_STEREO_COUNT>
0

> <PUBCHEM_BOND_DEF_STEREO_COUNT>
0

> <PUBCHEM_BOND_UDEF_STEREO_COUNT>
0

> <PUBCHEM_ISOTOPIC_ATOM_COUNT>
0

> <PUBCHEM_COMPONENT_COUNT>
1

> <PUBCHEM_CACTVS_TAUTO_COUNT>
-1

> <PUBCHEM_COORDINATE_TYPE>
1
5
255

> <PUBCHEM_BONDANNOTATIONS>
11  15  8
12  15  8
13  16  8
14  17  8
16  17  8
2  3  8
2  8  8
3  5  8
4  5  8
4  6  8
4  8  8
6  11  8
7  13  8
7  9  8
8  12  8
9  14  8

$$$$
