136027062
  -OEChem-03202500452D

 38 40  0     0  0  0  0  0  0999 V2000
    2.0000   -2.1900    0.0000 O   0  0  0  0  0  0  0  0  0  0  0  0
    5.4641   -2.1900    0.0000 N   0  0  0  0  0  0  0  0  0  0  0  0
    3.7320   -2.1900    0.0000 N   0  0  0  0  0  0  0  0  0  0  0  0
    4.5981   -0.6900    0.0000 N   0  0  0  0  0  0  0  0  0  0  0  0
    3.7320    2.8100    0.0000 N   0  0  0  0  0  0  0  0  0  0  0  0
    6.3301   -1.6900    0.0000 C   0  0  0  0  0  0  0  0  0  0  0  0
    6.3301   -0.6900    0.0000 C   0  0  0  0  0  0  0  0  0  0  0  0
    7.1962   -2.1900    0.0000 C   0  0  0  0  0  0  0  0  0  0  0  0
    7.1962   -0.1900    0.0000 C   0  0  0  0  0  0  0  0  0  0  0  0
    8.0622   -1.6900    0.0000 C   0  0  0  0  0  0  0  0  0  0  0  0
    8.0622   -0.6900    0.0000 C   0  0  0  0  0  0  0  0  0  0  0  0
    4.5981   -1.6900    0.0000 C   0  0  0  0  0  0  0  0  0  0  0  0
    3.7320   -0.1900    0.0000 C   0  0  0  0  0  0  0  0  0  0  0  0
    2.8660   -1.6900    0.0000 C   0  0  0  0  0  0  0  0  0  0  0  0
    2.8660   -0.6900    0.0000 C   0  0  0  0  0  0  0  0  0  0  0  0
    3.7320    0.8100    0.0000 C   0  0  0  0  0  0  0  0  0  0  0  0
    2.8660    1.3100    0.0000 C   0  0  0  0  0  0  0  0  0  0  0  0
    4.5981    1.3100    0.0000 C   0  0  0  0  0  0  0  0  0  0  0  0
    2.8660    2.3100    0.0000 C   0  0  0  0  0  0  0  0  0  0  0  0
    4.5981    2.3100    0.0000 C   0  0  0  0  0  0  0  0  0  0  0  0
    5.7932   -1.3800    0.0000 H   0  0  0  0  0  0  0  0  0  0  0  0
    6.1181   -0.1074    0.0000 H   0  0  0  0  0  0  0  0  0  0  0  0
    5.7196   -0.7977    0.0000 H   0  0  0  0  0  0  0  0  0  0  0  0
    6.7976   -2.6650    0.0000 H   0  0  0  0  0  0  0  0  0  0  0  0
    7.5947   -2.6650    0.0000 H   0  0  0  0  0  0  0  0  0  0  0  0
    7.5947    0.2849    0.0000 H   0  0  0  0  0  0  0  0  0  0  0  0
    6.7976    0.2849    0.0000 H   0  0  0  0  0  0  0  0  0  0  0  0
    8.2742   -2.2726    0.0000 H   0  0  0  0  0  0  0  0  0  0  0  0
    8.6728   -1.5823    0.0000 H   0  0  0  0  0  0  0  0  0  0  0  0
    8.6728   -0.7977    0.0000 H   0  0  0  0  0  0  0  0  0  0  0  0
    8.2742   -0.1074    0.0000 H   0  0  0  0  0  0  0  0  0  0  0  0
    5.4641   -2.8100    0.0000 H   0  0  0  0  0  0  0  0  0  0  0  0
    3.7320   -2.8100    0.0000 H   0  0  0  0  0  0  0  0  0  0  0  0
    2.3291   -0.3800    0.0000 H   0  0  0  0  0  0  0  0  0  0  0  0
    2.3291    1.0000    0.0000 H   0  0  0  0  0  0  0  0  0  0  0  0
    5.1350    1.0000    0.0000 H   0  0  0  0  0  0  0  0  0  0  0  0
    2.3291    2.6200    0.0000 H   0  0  0  0  0  0  0  0  0  0  0  0
    5.1350    2.6200    0.0000 H   0  0  0  0  0  0  0  0  0  0  0  0
  1 14  2  0  0  0  0
  2  6  1  0  0  0  0
  2 12  1  0  0  0  0
  2 32  1  0  0  0  0
  3 12  1  0  0  0  0
  3 14  1  0  0  0  0
  3 33  1  0  0  0  0
  4 12  2  0  0  0  0
  4 13  1  0  0  0  0
  5 19  2  0  0  0  0
  5 20  1  0  0  0  0
  6  7  1  0  0  0  0
  6  8  1  0  0  0  0
  6 21  1  0  0  0  0
  7  9  1  0  0  0  0
  7 22  1  0  0  0  0
  7 23  1  0  0  0  0
  8 10  1  0  0  0  0
  8 24  1  0  0  0  0
  8 25  1  0  0  0  0
  9 11  1  0  0  0  0
  9 26  1  0  0  0  0
  9 27  1  0  0  0  0
 10 11  1  0  0  0  0
 10 28  1  0  0  0  0
 10 29  1  0  0  0  0
 11 30  1  0  0  0  0
 11 31  1  0  0  0  0
 13 15  2  0  0  0  0
 13 16  1  0  0  0  0
 14 15  1  0  0  0  0
 15 34  1  0  0  0  0
 16 17  2  0  0  0  0
 16 18  1  0  0  0  0
 17 19  1  0  0  0  0
 17 35  1  0  0  0  0
 18 20  2  0  0  0  0
 18 36  1  0  0  0  0
 19 37  1  0  0  0  0
 20 38  1  0  0  0  0
M  END
> <PUBCHEM_COMPOUND_CID>
136027062

> <PUBCHEM_COMPOUND_CANONICALIZED>
1

> <PUBCHEM_CACTVS_COMPLEXITY>
418

> <PUBCHEM_CACTVS_HBOND_ACCEPTOR>
3

> <PUBCHEM_CACTVS_HBOND_DONOR>
2

> <PUBCHEM_CACTVS_ROTATABLE_BOND>
3

> <PUBCHEM_CACTVS_SUBSKEYS>
AAADceBzoAAAAAAAAAAAAAAAAAAAAAAAAAA8QIAAAAAAAAABgAAAHgAQAAAADCjBmgQ9gJLIEACoAjV3dACCgCExAiAJ2KA4ZNiIIGLAmZGEIAhokQLIyUcQAAAKAAAAAAAAAAAAAAAAAAAAAAAAAAAAAA==

> <PUBCHEM_IUPAC_OPENEYE_NAME>
2-(cyclohexylamino)-4-(4-pyridyl)-1H-pyrimidin-6-one

> <PUBCHEM_IUPAC_CAS_NAME>
2-(cyclohexylamino)-4-pyridin-4-yl-1H-pyrimidin-6-one

> <PUBCHEM_IUPAC_NAME_MARKUP>
2-(cyclohexylamino)-4-pyridin-4-yl-1<I>H</I>-pyrimidin-6-one

> <PUBCHEM_IUPAC_NAME>
2-(cyclohexylamino)-4-pyridin-4-yl-1H-pyrimidin-6-one

> <PUBCHEM_IUPAC_SYSTEMATIC_NAME>
2-(cyclohexylamino)-4-pyridin-4-yl-1H-pyrimidin-6-one

> <PUBCHEM_IUPAC_TRADITIONAL_NAME>
2-(cyclohexylamino)-4-(4-pyridyl)-1H-pyrimidin-6-one

> <PUBCHEM_IUPAC_INCHI>
InChI=1S/C15H18N4O/c20-14-10-13(11-6-8-16-9-7-11)18-15(19-14)17-12-4-2-1-3-5-12/h6-10,12H,1-5H2,(H2,17,18,19,20)

> <PUBCHEM_IUPAC_INCHIKEY>
FAIHBCXQSBIRIL-UHFFFAOYSA-N

> <PUBCHEM_XLOGP3_AA>
1.5

> <PUBCHEM_EXACT_MASS>
270.14806121

> <PUBCHEM_MOLECULAR_FORMULA>
C15H18N4O

> <PUBCHEM_MOLECULAR_WEIGHT>
270.33

> <PUBCHEM_SMILES>
C1CCC(CC1)NC2=NC(=CC(=O)N2)C3=CC=NC=C3

> <PUBCHEM_OPENEYE_CAN_SMILES>
C1CCC(CC1)NC2=NC(=CC(=O)N2)C3=CC=NC=C3

> <PUBCHEM_OPENEYE_ISO_SMILES>
C1CCC(CC1)NC2=NC(=CC(=O)N2)C3=CC=NC=C3

> <PUBCHEM_CACTVS_TPSA>
66.4

> <PUBCHEM_MONOISOTOPIC_WEIGHT>
270.14806121

> <PUBCHEM_TOTAL_CHARGE>
0

> <PUBCHEM_HEAVY_ATOM_COUNT>
20

> <PUBCHEM_ATOM_DEF_STEREO_COUNT>
0

> <PUBCHEM_ATOM_UDEF_STEREO_COUNT>
0

> <PUBCHEM_BOND_DEF_STEREO_COUNT>
0

> <PUBCHEM_BOND_UDEF_STEREO_COUNT>
0

> <PUBCHEM_ISOTOPIC_ATOM_COUNT>
0

> <PUBCHEM_COMPONENT_COUNT>
1

> <PUBCHEM_CACTVS_TAUTO_COUNT>
-1

> <PUBCHEM_COORDINATE_TYPE>
1
5
255

> <PUBCHEM_BONDANNOTATIONS>
13  15  8
14  15  8
16  17  8
16  18  8
17  19  8
18  20  8
3  12  8
3  14  8
4  12  8
4  13  8
5  19  8
5  20  8

$$$$
