24859158
  -OEChem-03202501012D

 31 33  0     0  0  0  0  0  0999 V2000
    3.7817   -3.7673    0.0000 F   0  0  0  0  0  0  0  0  0  0  0  0
    2.0000   -0.7086    0.0000 F   0  0  0  0  0  0  0  0  0  0  0  0
    7.2622    0.2673    0.0000 O   0  0  0  0  0  0  0  0  0  0  0  0
    5.5301    0.2673    0.0000 N   0  0  0  0  0  0  0  0  0  0  0  0
    5.5301   -2.7327    0.0000 N   0  0  0  0  0  0  0  0  0  0  0  0
    6.3961    1.7673    0.0000 N   0  0  0  0  0  0  0  0  0  0  0  0
    8.1282    1.7673    0.0000 N   0  0  0  0  0  0  0  0  0  0  0  0
    8.1282    3.7673    0.0000 N   0  0  0  0  0  0  0  0  0  0  0  0
    4.6641   -1.2327    0.0000 C   0  0  0  0  0  0  0  0  0  0  0  0
    5.5301   -0.7327    0.0000 C   0  0  0  0  0  0  0  0  0  0  0  0
    4.6641   -2.2327    0.0000 C   0  0  0  0  0  0  0  0  0  0  0  0
    3.7702   -0.6980    0.0000 C   0  0  0  0  0  0  0  0  0  0  0  0
    6.3961   -1.2327    0.0000 C   0  0  0  0  0  0  0  0  0  0  0  0
    3.7702   -2.7674    0.0000 C   0  0  0  0  0  0  0  0  0  0  0  0
    2.8641   -1.2119    0.0000 C   0  0  0  0  0  0  0  0  0  0  0  0
    2.8641   -2.2535    0.0000 C   0  0  0  0  0  0  0  0  0  0  0  0
    6.3961   -2.2327    0.0000 C   0  0  0  0  0  0  0  0  0  0  0  0
    6.3961    0.7673    0.0000 C   0  0  0  0  0  0  0  0  0  0  0  0
    7.2622    2.2673    0.0000 C   0  0  0  0  0  0  0  0  0  0  0  0
    7.2622    3.2673    0.0000 C   0  0  0  0  0  0  0  0  0  0  0  0
    8.9942    2.2673    0.0000 C   0  0  0  0  0  0  0  0  0  0  0  0
    8.9942    3.2673    0.0000 C   0  0  0  0  0  0  0  0  0  0  0  0
    3.7773   -0.0781    0.0000 H   0  0  0  0  0  0  0  0  0  0  0  0
    6.9331   -0.9227    0.0000 H   0  0  0  0  0  0  0  0  0  0  0  0
    4.9932    0.5773    0.0000 H   0  0  0  0  0  0  0  0  0  0  0  0
    2.3284   -2.5656    0.0000 H   0  0  0  0  0  0  0  0  0  0  0  0
    6.9331   -2.5427    0.0000 H   0  0  0  0  0  0  0  0  0  0  0  0
    5.8592    2.0773    0.0000 H   0  0  0  0  0  0  0  0  0  0  0  0
    6.7252    3.5773    0.0000 H   0  0  0  0  0  0  0  0  0  0  0  0
    9.5312    1.9573    0.0000 H   0  0  0  0  0  0  0  0  0  0  0  0
    9.5312    3.5773    0.0000 H   0  0  0  0  0  0  0  0  0  0  0  0
  1 14  1  0  0  0  0
  2 15  1  0  0  0  0
  3 18  2  0  0  0  0
  4 10  1  0  0  0  0
  4 18  1  0  0  0  0
  4 25  1  0  0  0  0
  5 11  2  0  0  0  0
  5 17  1  0  0  0  0
  6 18  1  0  0  0  0
  6 19  1  0  0  0  0
  6 28  1  0  0  0  0
  7 19  2  0  0  0  0
  7 21  1  0  0  0  0
  8 20  2  0  0  0  0
  8 22  1  0  0  0  0
  9 10  2  0  0  0  0
  9 11  1  0  0  0  0
  9 12  1  0  0  0  0
 10 13  1  0  0  0  0
 11 14  1  0  0  0  0
 12 15  2  0  0  0  0
 12 23  1  0  0  0  0
 13 17  2  0  0  0  0
 13 24  1  0  0  0  0
 14 16  2  0  0  0  0
 15 16  1  0  0  0  0
 16 26  1  0  0  0  0
 17 27  1  0  0  0  0
 19 20  1  0  0  0  0
 20 29  1  0  0  0  0
 21 22  2  0  0  0  0
 21 30  1  0  0  0  0
 22 31  1  0  0  0  0
M  END
> <PUBCHEM_COMPOUND_CID>
24859158

> <PUBCHEM_COMPOUND_CANONICALIZED>
1

> <PUBCHEM_CACTVS_COMPLEXITY>
399

> <PUBCHEM_CACTVS_HBOND_ACCEPTOR>
6

> <PUBCHEM_CACTVS_HBOND_DONOR>
2

> <PUBCHEM_CACTVS_ROTATABLE_BOND>
2

> <PUBCHEM_CACTVS_SUBSKEYS>
AAADccBzoYAAAAAAAAAAAAAAAAAAAAAAAAA8WIAAAAAAAACx/AAAHwAQAAAADAjBHgw98PLIEACoAzZndACCgC0xEiAJ2CA4dJiIYOLA0dGUJAholQLIyCcQgIAOAAAAAAACAAAAAAAAAAQAAAAAAAAAAA==

> <PUBCHEM_IUPAC_OPENEYE_NAME>
1-(6,8-difluoro-4-quinolyl)-3-pyrazin-2-yl-urea

> <PUBCHEM_IUPAC_CAS_NAME>
1-(6,8-difluoro-4-quinolinyl)-3-(2-pyrazinyl)urea

> <PUBCHEM_IUPAC_NAME_MARKUP>
1-(6,8-difluoroquinolin-4-yl)-3-pyrazin-2-ylurea

> <PUBCHEM_IUPAC_NAME>
1-(6,8-difluoroquinolin-4-yl)-3-pyrazin-2-ylurea

> <PUBCHEM_IUPAC_SYSTEMATIC_NAME>
1-[6,8-bis(fluoranyl)quinolin-4-yl]-3-pyrazin-2-yl-urea

> <PUBCHEM_IUPAC_TRADITIONAL_NAME>
1-(6,8-difluoro-4-quinolyl)-3-pyrazin-2-yl-urea

> <PUBCHEM_IUPAC_INCHI>
InChI=1S/C14H9F2N5O/c15-8-5-9-11(1-2-19-13(9)10(16)6-8)20-14(22)21-12-7-17-3-4-18-12/h1-7H,(H2,18,19,20,21,22)

> <PUBCHEM_IUPAC_INCHIKEY>
KGCRKAITGGKXHI-UHFFFAOYSA-N

> <PUBCHEM_XLOGP3_AA>
1.1

> <PUBCHEM_EXACT_MASS>
301.07751625

> <PUBCHEM_MOLECULAR_FORMULA>
C14H9F2N5O

> <PUBCHEM_MOLECULAR_WEIGHT>
301.25

> <PUBCHEM_SMILES>
C1=CN=C2C(=CC(=CC2=C1NC(=O)NC3=NC=CN=C3)F)F

> <PUBCHEM_OPENEYE_CAN_SMILES>
C1=CN=C2C(=CC(=CC2=C1NC(=O)NC3=NC=CN=C3)F)F

> <PUBCHEM_OPENEYE_ISO_SMILES>
C1=CN=C2C(=CC(=CC2=C1NC(=O)NC3=NC=CN=C3)F)F

> <PUBCHEM_CACTVS_TPSA>
79.8

> <PUBCHEM_MONOISOTOPIC_WEIGHT>
301.07751625

> <PUBCHEM_TOTAL_CHARGE>
0

> <PUBCHEM_HEAVY_ATOM_COUNT>
22

> <PUBCHEM_ATOM_DEF_STEREO_COUNT>
0

> <PUBCHEM_ATOM_UDEF_STEREO_COUNT>
0

> <PUBCHEM_BOND_DEF_STEREO_COUNT>
0

> <PUBCHEM_BOND_UDEF_STEREO_COUNT>
0

> <PUBCHEM_ISOTOPIC_ATOM_COUNT>
0

> <PUBCHEM_COMPONENT_COUNT>
1

> <PUBCHEM_CACTVS_TAUTO_COUNT>
-1

> <PUBCHEM_COORDINATE_TYPE>
1
5
255

> <PUBCHEM_BONDANNOTATIONS>
10  13  8
11  14  8
12  15  8
13  17  8
14  16  8
15  16  8
19  20  8
21  22  8
5  11  8
5  17  8
7  19  8
7  21  8
8  20  8
8  22  8
9  10  8
9  11  8
9  12  8

$$$$
