24905292
  -OEChem-03192523572D

 36 38  0     0  0  0  0  0  0999 V2000
    5.9209    1.9560    0.0000 O   0  0  0  0  0  0  0  0  0  0  0  0
    7.2566    0.4674    0.0000 O   0  0  0  0  0  0  0  0  0  0  0  0
    5.2619   -2.6508    0.0000 N   0  0  0  0  0  0  0  0  0  0  0  0
    4.6783   -3.4556    0.0000 N   0  0  0  0  0  0  0  0  0  0  0  0
    2.8660   -3.6508    0.0000 N   0  0  0  0  0  0  0  0  0  0  0  0
    2.0000   -2.1508    0.0000 N   0  0  0  0  0  0  0  0  0  0  0  0
    2.8660   -0.6508    0.0000 N   0  0  0  0  0  0  0  0  0  0  0  0
    4.6783   -1.8461    0.0000 C   0  0  0  0  0  0  0  0  0  0  0  0
    4.9889   -0.8956    0.0000 C   0  0  0  0  0  0  0  0  0  0  0  0
    3.7320   -2.1508    0.0000 C   0  0  0  0  0  0  0  0  0  0  0  0
    5.9674   -0.6893    0.0000 C   0  0  0  0  0  0  0  0  0  0  0  0
    3.7320   -3.1508    0.0000 C   0  0  0  0  0  0  0  0  0  0  0  0
    4.3211   -0.1513    0.0000 C   0  0  0  0  0  0  0  0  0  0  0  0
    6.2781    0.2612    0.0000 C   0  0  0  0  0  0  0  0  0  0  0  0
    5.6103    1.0055    0.0000 C   0  0  0  0  0  0  0  0  0  0  0  0
    2.8660   -1.6508    0.0000 C   0  0  0  0  0  0  0  0  0  0  0  0
    4.6318    0.7993    0.0000 C   0  0  0  0  0  0  0  0  0  0  0  0
    5.2531    2.7003    0.0000 C   0  0  0  0  0  0  0  0  0  0  0  0
    2.0000   -3.1508    0.0000 C   0  0  0  0  0  0  0  0  0  0  0  0
    5.5637    3.6508    0.0000 C   0  0  0  0  0  0  0  0  0  0  0  0
    7.9244   -0.2769    0.0000 C   0  0  0  0  0  0  0  0  0  0  0  0
    6.3815   -1.1508    0.0000 H   0  0  0  0  0  0  0  0  0  0  0  0
    3.7144   -0.2791    0.0000 H   0  0  0  0  0  0  0  0  0  0  0  0
    5.8819   -2.6508    0.0000 H   0  0  0  0  0  0  0  0  0  0  0  0
    4.2177    1.2607    0.0000 H   0  0  0  0  0  0  0  0  0  0  0  0
    4.7062    2.9923    0.0000 H   0  0  0  0  0  0  0  0  0  0  0  0
    4.8705    2.2124    0.0000 H   0  0  0  0  0  0  0  0  0  0  0  0
    1.4631   -3.4608    0.0000 H   0  0  0  0  0  0  0  0  0  0  0  0
    2.3291   -0.3408    0.0000 H   0  0  0  0  0  0  0  0  0  0  0  0
    3.4030   -0.3408    0.0000 H   0  0  0  0  0  0  0  0  0  0  0  0
    6.1531    3.4582    0.0000 H   0  0  0  0  0  0  0  0  0  0  0  0
    5.7564    4.2401    0.0000 H   0  0  0  0  0  0  0  0  0  0  0  0
    4.9744    3.8434    0.0000 H   0  0  0  0  0  0  0  0  0  0  0  0
    7.4630   -0.6910    0.0000 H   0  0  0  0  0  0  0  0  0  0  0  0
    8.3385   -0.7384    0.0000 H   0  0  0  0  0  0  0  0  0  0  0  0
    8.3859    0.1372    0.0000 H   0  0  0  0  0  0  0  0  0  0  0  0
  1 15  1  0  0  0  0
  1 18  1  0  0  0  0
  2 14  1  0  0  0  0
  2 21  1  0  0  0  0
  3  4  1  0  0  0  0
  3  8  1  0  0  0  0
  3 24  1  0  0  0  0
  4 12  2  0  0  0  0
  5 12  1  0  0  0  0
  5 19  2  0  0  0  0
  6 16  2  0  0  0  0
  6 19  1  0  0  0  0
  7 16  1  0  0  0  0
  7 29  1  0  0  0  0
  7 30  1  0  0  0  0
  8  9  1  0  0  0  0
  8 10  2  0  0  0  0
  9 11  2  0  0  0  0
  9 13  1  0  0  0  0
 10 12  1  0  0  0  0
 10 16  1  0  0  0  0
 11 14  1  0  0  0  0
 11 22  1  0  0  0  0
 13 17  2  0  0  0  0
 13 23  1  0  0  0  0
 14 15  2  0  0  0  0
 15 17  1  0  0  0  0
 17 25  1  0  0  0  0
 18 20  1  0  0  0  0
 18 26  1  0  0  0  0
 18 27  1  0  0  0  0
 19 28  1  0  0  0  0
 20 31  1  0  0  0  0
 20 32  1  0  0  0  0
 20 33  1  0  0  0  0
 21 34  1  0  0  0  0
 21 35  1  0  0  0  0
 21 36  1  0  0  0  0
M  END
> <PUBCHEM_COMPOUND_CID>
24905292

> <PUBCHEM_COMPOUND_CANONICALIZED>
1

> <PUBCHEM_CACTVS_COMPLEXITY>
345

> <PUBCHEM_CACTVS_HBOND_ACCEPTOR>
6

> <PUBCHEM_CACTVS_HBOND_DONOR>
2

> <PUBCHEM_CACTVS_ROTATABLE_BOND>
4

> <PUBCHEM_CACTVS_SUBSKEYS>
AAADccBzsAAAAAAAAAAAAAAAAAAAAWAAAAA8QAAAAAAAAFgB/AAAHgAYAAAADAyhnwY3tt5rFACiAyZjZACSjCsxIKAd+SAuzJiNLqLE+duGvCrsyBNK6Cew0PEOIAABAAAAQABAAAIAAACAAAAAAAAAAA==

> <PUBCHEM_IUPAC_OPENEYE_NAME>
3-(4-ethoxy-3-methoxy-phenyl)-2H-pyrazolo[3,4-d]pyrimidin-4-amine

> <PUBCHEM_IUPAC_CAS_NAME>
3-(4-ethoxy-3-methoxyphenyl)-2H-pyrazolo[3,4-d]pyrimidin-4-amine

> <PUBCHEM_IUPAC_NAME_MARKUP>
3-(4-ethoxy-3-methoxyphenyl)-2<I>H</I>-pyrazolo[3,4-d]pyrimidin-4-amine

> <PUBCHEM_IUPAC_NAME>
3-(4-ethoxy-3-methoxyphenyl)-2H-pyrazolo[3,4-d]pyrimidin-4-amine

> <PUBCHEM_IUPAC_SYSTEMATIC_NAME>
3-(4-ethoxy-3-methoxy-phenyl)-2H-pyrazolo[3,4-d]pyrimidin-4-amine

> <PUBCHEM_IUPAC_TRADITIONAL_NAME>
[3-(4-ethoxy-3-methoxy-phenyl)-2H-pyrazolo[3,4-d]pyrimidin-4-yl]amine

> <PUBCHEM_IUPAC_INCHI>
InChI=1S/C14H15N5O2/c1-3-21-9-5-4-8(6-10(9)20-2)12-11-13(15)16-7-17-14(11)19-18-12/h4-7H,3H2,1-2H3,(H3,15,16,17,18,19)

> <PUBCHEM_IUPAC_INCHIKEY>
UVDQTDYLJGKKKD-UHFFFAOYSA-N

> <PUBCHEM_XLOGP3_AA>
1.8

> <PUBCHEM_EXACT_MASS>
285.12257474

> <PUBCHEM_MOLECULAR_FORMULA>
C14H15N5O2

> <PUBCHEM_MOLECULAR_WEIGHT>
285.30

> <PUBCHEM_SMILES>
CCOC1=C(C=C(C=C1)C2=C3C(=NC=NC3=NN2)N)OC

> <PUBCHEM_OPENEYE_CAN_SMILES>
CCOC1=C(C=C(C=C1)C2=C3C(=NC=NC3=NN2)N)OC

> <PUBCHEM_OPENEYE_ISO_SMILES>
CCOC1=C(C=C(C=C1)C2=C3C(=NC=NC3=NN2)N)OC

> <PUBCHEM_CACTVS_TPSA>
98.9

> <PUBCHEM_MONOISOTOPIC_WEIGHT>
285.12257474

> <PUBCHEM_TOTAL_CHARGE>
0

> <PUBCHEM_HEAVY_ATOM_COUNT>
21

> <PUBCHEM_ATOM_DEF_STEREO_COUNT>
0

> <PUBCHEM_ATOM_UDEF_STEREO_COUNT>
0

> <PUBCHEM_BOND_DEF_STEREO_COUNT>
0

> <PUBCHEM_BOND_UDEF_STEREO_COUNT>
0

> <PUBCHEM_ISOTOPIC_ATOM_COUNT>
0

> <PUBCHEM_COMPONENT_COUNT>
1

> <PUBCHEM_CACTVS_TAUTO_COUNT>
-1

> <PUBCHEM_COORDINATE_TYPE>
1
5
255

> <PUBCHEM_BONDANNOTATIONS>
10  12  8
10  16  8
11  14  8
13  17  8
14  15  8
15  17  8
3  4  8
3  8  8
4  12  8
5  12  8
5  19  8
6  16  8
6  19  8
8  10  8
9  11  8
9  13  8

$$$$
