44317726
  -OEChem-03202507262D

 35 37  0     0  0  0  0  0  0999 V2000
    7.3991   -3.3091    0.0000 Cl  0  0  0  0  0  0  0  0  0  0  0  0
    8.3031   -0.3656    0.0000 O   0  0  0  0  0  0  0  0  0  0  0  0
   10.1728    2.7173    0.0000 O   0  0  0  0  0  0  0  0  0  0  0  0
    4.5274   -0.4485    0.0000 N   0  0  0  0  0  0  0  0  0  0  0  0
    6.6498    0.1505    0.0000 N   0  0  0  0  0  0  0  0  0  0  0  0
    2.0000   -1.5727    0.0000 N   0  0  0  0  0  0  0  0  0  0  0  0
    5.3364   -1.0363    0.0000 C   0  0  0  0  0  0  0  0  0  0  0  0
    5.0274   -1.9874    0.0000 C   0  0  0  0  0  0  0  0  0  0  0  0
    4.0274   -1.9874    0.0000 C   0  0  0  0  0  0  0  0  0  0  0  0
    3.7183   -1.0363    0.0000 C   0  0  0  0  0  0  0  0  0  0  0  0
    6.3518   -0.8040    0.0000 C   0  0  0  0  0  0  0  0  0  0  0  0
    5.7123   -2.7721    0.0000 C   0  0  0  0  0  0  0  0  0  0  0  0
    7.0547   -1.5727    0.0000 C   0  0  0  0  0  0  0  0  0  0  0  0
    7.9235    1.3243    0.0000 C   0  0  0  0  0  0  0  0  0  0  0  0
    6.7328   -2.5634    0.0000 C   0  0  0  0  0  0  0  0  0  0  0  0
    3.3424   -2.7721    0.0000 C   0  0  0  0  0  0  0  0  0  0  0  0
    7.6255    0.3697    0.0000 C   0  0  0  0  0  0  0  0  0  0  0  0
    8.8991    1.5435    0.0000 C   0  0  0  0  0  0  0  0  0  0  0  0
    2.7029   -0.8040    0.0000 C   0  0  0  0  0  0  0  0  0  0  0  0
    2.3219   -2.5634    0.0000 C   0  0  0  0  0  0  0  0  0  0  0  0
    9.1971    2.4981    0.0000 C   0  0  0  0  0  0  0  0  0  0  0  0
    4.5274    0.1715    0.0000 H   0  0  0  0  0  0  0  0  0  0  0  0
    5.5139   -3.3595    0.0000 H   0  0  0  0  0  0  0  0  0  0  0  0
    7.6607   -1.4415    0.0000 H   0  0  0  0  0  0  0  0  0  0  0  0
    6.2296    0.6064    0.0000 H   0  0  0  0  0  0  0  0  0  0  0  0
    7.8947    1.9436    0.0000 H   0  0  0  0  0  0  0  0  0  0  0  0
    7.3085    1.4035    0.0000 H   0  0  0  0  0  0  0  0  0  0  0  0
    3.5408   -3.3595    0.0000 H   0  0  0  0  0  0  0  0  0  0  0  0
    8.9279    0.9242    0.0000 H   0  0  0  0  0  0  0  0  0  0  0  0
    9.5141    1.4643    0.0000 H   0  0  0  0  0  0  0  0  0  0  0  0
    2.5182   -0.2122    0.0000 H   0  0  0  0  0  0  0  0  0  0  0  0
    1.9088   -3.0257    0.0000 H   0  0  0  0  0  0  0  0  0  0  0  0
    9.1683    3.1174    0.0000 H   0  0  0  0  0  0  0  0  0  0  0  0
    8.5822    2.5772    0.0000 H   0  0  0  0  0  0  0  0  0  0  0  0
   10.3576    3.3091    0.0000 H   0  0  0  0  0  0  0  0  0  0  0  0
  1 15  1  0  0  0  0
  2 17  2  0  0  0  0
  3 21  1  0  0  0  0
  3 35  1  0  0  0  0
  4  7  1  0  0  0  0
  4 10  1  0  0  0  0
  4 22  1  0  0  0  0
  5 11  1  0  0  0  0
  5 17  1  0  0  0  0
  5 25  1  0  0  0  0
  6 19  2  0  0  0  0
  6 20  1  0  0  0  0
  7  8  2  0  0  0  0
  7 11  1  0  0  0  0
  8  9  1  0  0  0  0
  8 12  1  0  0  0  0
  9 10  2  0  0  0  0
  9 16  1  0  0  0  0
 10 19  1  0  0  0  0
 11 13  2  0  0  0  0
 12 15  2  0  0  0  0
 12 23  1  0  0  0  0
 13 15  1  0  0  0  0
 13 24  1  0  0  0  0
 14 17  1  0  0  0  0
 14 18  1  0  0  0  0
 14 26  1  0  0  0  0
 14 27  1  0  0  0  0
 16 20  2  0  0  0  0
 16 28  1  0  0  0  0
 18 21  1  0  0  0  0
 18 29  1  0  0  0  0
 18 30  1  0  0  0  0
 19 31  1  0  0  0  0
 20 32  1  0  0  0  0
 21 33  1  0  0  0  0
 21 34  1  0  0  0  0
M  END
> <PUBCHEM_COMPOUND_CID>
44317726

> <PUBCHEM_COMPOUND_CANONICALIZED>
1

> <PUBCHEM_CACTVS_COMPLEXITY>
382

> <PUBCHEM_CACTVS_HBOND_ACCEPTOR>
3

> <PUBCHEM_CACTVS_HBOND_DONOR>
3

> <PUBCHEM_CACTVS_ROTATABLE_BOND>
4

> <PUBCHEM_CACTVS_SUBSKEYS>
AAADccBzMAAEAAAAAAAAAAAAAAAAAWAAAAA8QAAAAAAAAFgB/gAAHgIQCAAADArhniY8wPLJkgCoAzV3VACCgCQxFyAI2SE4dpgIcPLBk5GUYAhklADIyAcygMAOgABAYAICACAAAIDABAQAQAAAAAAAAA==

> <PUBCHEM_IUPAC_OPENEYE_NAME>
N-(6-chloro-9H-pyrido[3,4-b]indol-8-yl)-4-hydroxy-butanamide

> <PUBCHEM_IUPAC_CAS_NAME>
N-(6-chloro-9H-pyrido[3,4-b]indol-8-yl)-4-hydroxybutanamide

> <PUBCHEM_IUPAC_NAME_MARKUP>
<I>N</I>-(6-chloro-9<I>H</I>-pyrido[3,4-b]indol-8-yl)-4-hydroxybutanamide

> <PUBCHEM_IUPAC_NAME>
N-(6-chloro-9H-pyrido[3,4-b]indol-8-yl)-4-hydroxybutanamide

> <PUBCHEM_IUPAC_SYSTEMATIC_NAME>
N-(6-chloranyl-9H-pyrido[3,4-b]indol-8-yl)-4-oxidanyl-butanamide

> <PUBCHEM_IUPAC_TRADITIONAL_NAME>
N-(6-chloro-9H-beta-carbolin-8-yl)-4-hydroxy-butyramide

> <PUBCHEM_IUPAC_INCHI>
InChI=1S/C15H14ClN3O2/c16-9-6-11-10-3-4-17-8-13(10)19-15(11)12(7-9)18-14(21)2-1-5-20/h3-4,6-8,19-20H,1-2,5H2,(H,18,21)

> <PUBCHEM_IUPAC_INCHIKEY>
MSNVIHQFTGKHLT-UHFFFAOYSA-N

> <PUBCHEM_XLOGP3_AA>
1.7

> <PUBCHEM_EXACT_MASS>
303.0774544

> <PUBCHEM_MOLECULAR_FORMULA>
C15H14ClN3O2

> <PUBCHEM_MOLECULAR_WEIGHT>
303.74

> <PUBCHEM_SMILES>
C1=CN=CC2=C1C3=C(N2)C(=CC(=C3)Cl)NC(=O)CCCO

> <PUBCHEM_OPENEYE_CAN_SMILES>
C1=CN=CC2=C1C3=C(N2)C(=CC(=C3)Cl)NC(=O)CCCO

> <PUBCHEM_OPENEYE_ISO_SMILES>
C1=CN=CC2=C1C3=C(N2)C(=CC(=C3)Cl)NC(=O)CCCO

> <PUBCHEM_CACTVS_TPSA>
78

> <PUBCHEM_MONOISOTOPIC_WEIGHT>
303.0774544

> <PUBCHEM_TOTAL_CHARGE>
0

> <PUBCHEM_HEAVY_ATOM_COUNT>
21

> <PUBCHEM_ATOM_DEF_STEREO_COUNT>
0

> <PUBCHEM_ATOM_UDEF_STEREO_COUNT>
0

> <PUBCHEM_BOND_DEF_STEREO_COUNT>
0

> <PUBCHEM_BOND_UDEF_STEREO_COUNT>
0

> <PUBCHEM_ISOTOPIC_ATOM_COUNT>
0

> <PUBCHEM_COMPONENT_COUNT>
1

> <PUBCHEM_CACTVS_TAUTO_COUNT>
-1

> <PUBCHEM_COORDINATE_TYPE>
1
5
255

> <PUBCHEM_BONDANNOTATIONS>
10  19  8
11  13  8
12  15  8
13  15  8
16  20  8
4  10  8
4  7  8
6  19  8
6  20  8
7  11  8
7  8  8
8  12  8
8  9  8
9  10  8
9  16  8

$$$$
