44406014
  -OEChem-03202503162D

 43 46  0     0  0  0  0  0  0999 V2000
    8.0836   -0.4708    0.0000 S   0  0  0  0  0  0  0  0  0  0  0  0
    6.0000    1.2000    0.0000 O   0  0  0  0  0  0  0  0  0  0  0  0
    3.0000   -3.9962    0.0000 O   0  0  0  0  0  0  0  0  0  0  0  0
   10.5687    0.3340    0.0000 N   0  0  0  0  0  0  0  0  0  0  0  0
    9.9809   -0.4750    0.0000 N   0  0  0  0  0  0  0  0  0  0  0  0
    6.0000   -0.5321    0.0000 N   0  0  0  0  0  0  0  0  0  0  0  0
    9.0298    0.8340    0.0000 C   0  0  0  0  0  0  0  0  0  0  0  0
    9.9809    1.1430    0.0000 C   0  0  0  0  0  0  0  0  0  0  0  0
    9.0298   -0.1660    0.0000 C   0  0  0  0  0  0  0  0  0  0  0  0
    8.0836    1.1387    0.0000 C   0  0  0  0  0  0  0  0  0  0  0  0
    7.5000    0.3340    0.0000 C   0  0  0  0  0  0  0  0  0  0  0  0
   10.2899    2.0940    0.0000 C   0  0  0  0  0  0  0  0  0  0  0  0
    5.0000   -0.5321    0.0000 C   0  0  0  0  0  0  0  0  0  0  0  0
    6.5000    0.3340    0.0000 C   0  0  0  0  0  0  0  0  0  0  0  0
    4.5000   -1.3981    0.0000 C   0  0  0  0  0  0  0  0  0  0  0  0
    9.6208    2.8372    0.0000 C   0  0  0  0  0  0  0  0  0  0  0  0
   11.2681    2.3020    0.0000 C   0  0  0  0  0  0  0  0  0  0  0  0
    3.5000   -1.3981    0.0000 C   0  0  0  0  0  0  0  0  0  0  0  0
    5.0000   -2.2641    0.0000 C   0  0  0  0  0  0  0  0  0  0  0  0
    9.9298    3.7882    0.0000 C   0  0  0  0  0  0  0  0  0  0  0  0
   11.5771    3.2530    0.0000 C   0  0  0  0  0  0  0  0  0  0  0  0
    3.0000   -2.2641    0.0000 C   0  0  0  0  0  0  0  0  0  0  0  0
    4.5000   -3.1301    0.0000 C   0  0  0  0  0  0  0  0  0  0  0  0
    3.5000   -3.1301    0.0000 C   0  0  0  0  0  0  0  0  0  0  0  0
   10.9079    3.9962    0.0000 C   0  0  0  0  0  0  0  0  0  0  0  0
    2.0000   -3.9962    0.0000 C   0  0  0  0  0  0  0  0  0  0  0  0
    7.8910    1.7280    0.0000 H   0  0  0  0  0  0  0  0  0  0  0  0
   11.1887    0.3340    0.0000 H   0  0  0  0  0  0  0  0  0  0  0  0
    5.1077    0.0785    0.0000 H   0  0  0  0  0  0  0  0  0  0  0  0
    4.4174   -0.3200    0.0000 H   0  0  0  0  0  0  0  0  0  0  0  0
    6.3100   -1.0690    0.0000 H   0  0  0  0  0  0  0  0  0  0  0  0
    9.0143    2.7083    0.0000 H   0  0  0  0  0  0  0  0  0  0  0  0
   11.6829    1.8412    0.0000 H   0  0  0  0  0  0  0  0  0  0  0  0
    3.1900   -0.8611    0.0000 H   0  0  0  0  0  0  0  0  0  0  0  0
    5.6200   -2.2641    0.0000 H   0  0  0  0  0  0  0  0  0  0  0  0
    9.5149    4.2490    0.0000 H   0  0  0  0  0  0  0  0  0  0  0  0
   12.1835    3.3819    0.0000 H   0  0  0  0  0  0  0  0  0  0  0  0
    2.3800   -2.2641    0.0000 H   0  0  0  0  0  0  0  0  0  0  0  0
    4.8100   -3.6671    0.0000 H   0  0  0  0  0  0  0  0  0  0  0  0
   11.0995    4.5858    0.0000 H   0  0  0  0  0  0  0  0  0  0  0  0
    2.0000   -3.3762    0.0000 H   0  0  0  0  0  0  0  0  0  0  0  0
    1.3800   -3.9962    0.0000 H   0  0  0  0  0  0  0  0  0  0  0  0
    2.0000   -4.6162    0.0000 H   0  0  0  0  0  0  0  0  0  0  0  0
  1  9  1  0  0  0  0
  1 11  1  0  0  0  0
  2 14  2  0  0  0  0
  3 24  1  0  0  0  0
  3 26  1  0  0  0  0
  4  5  1  0  0  0  0
  4  8  1  0  0  0  0
  4 28  1  0  0  0  0
  5  9  2  0  0  0  0
  6 13  1  0  0  0  0
  6 14  1  0  0  0  0
  6 31  1  0  0  0  0
  7  8  2  0  0  0  0
  7  9  1  0  0  0  0
  7 10  1  0  0  0  0
  8 12  1  0  0  0  0
 10 11  2  0  0  0  0
 10 27  1  0  0  0  0
 11 14  1  0  0  0  0
 12 16  2  0  0  0  0
 12 17  1  0  0  0  0
 13 15  1  0  0  0  0
 13 29  1  0  0  0  0
 13 30  1  0  0  0  0
 15 18  2  0  0  0  0
 15 19  1  0  0  0  0
 16 20  1  0  0  0  0
 16 32  1  0  0  0  0
 17 21  2  0  0  0  0
 17 33  1  0  0  0  0
 18 22  1  0  0  0  0
 18 34  1  0  0  0  0
 19 23  2  0  0  0  0
 19 35  1  0  0  0  0
 20 25  2  0  0  0  0
 20 36  1  0  0  0  0
 21 25  1  0  0  0  0
 21 37  1  0  0  0  0
 22 24  2  0  0  0  0
 22 38  1  0  0  0  0
 23 24  1  0  0  0  0
 23 39  1  0  0  0  0
 25 40  1  0  0  0  0
 26 41  1  0  0  0  0
 26 42  1  0  0  0  0
 26 43  1  0  0  0  0
M  END
> <PUBCHEM_COMPOUND_CID>
44406014

> <PUBCHEM_COMPOUND_CANONICALIZED>
1

> <PUBCHEM_CACTVS_COMPLEXITY>
478

> <PUBCHEM_CACTVS_HBOND_ACCEPTOR>
4

> <PUBCHEM_CACTVS_HBOND_DONOR>
2

> <PUBCHEM_CACTVS_ROTATABLE_BOND>
5

> <PUBCHEM_CACTVS_SUBSKEYS>
AAADceB7MABAAAAAAAAAAAAAAAAAAWJAAAAwYAAAAAAWAAAB/AAAHgQYAAAADAzB3gYyh9LjBAiuAyVyUACTDIBkKBBYubkuTNgMJrKk9duEtSxkzhGo6YeY2cKeIAAAAAAAAABAAAAAAAAAAAAAAAAAAA==

> <PUBCHEM_IUPAC_OPENEYE_NAME>
N-[(4-methoxyphenyl)methyl]-3-phenyl-2H-thieno[2,3-c]pyrazole-5-carboxamide

> <PUBCHEM_IUPAC_CAS_NAME>
N-[(4-methoxyphenyl)methyl]-3-phenyl-2H-thieno[2,3-c]pyrazole-5-carboxamide

> <PUBCHEM_IUPAC_NAME_MARKUP>
<I>N</I>-[(4-methoxyphenyl)methyl]-3-phenyl-2<I>H</I>-thieno[2,3-c]pyrazole-5-carboxamide

> <PUBCHEM_IUPAC_NAME>
N-[(4-methoxyphenyl)methyl]-3-phenyl-2H-thieno[2,3-c]pyrazole-5-carboxamide

> <PUBCHEM_IUPAC_SYSTEMATIC_NAME>
N-[(4-methoxyphenyl)methyl]-3-phenyl-2H-thieno[2,3-c]pyrazole-5-carboxamide

> <PUBCHEM_IUPAC_TRADITIONAL_NAME>
N-p-anisyl-3-phenyl-2H-thieno[2,3-c]pyrazole-5-carboxamide

> <PUBCHEM_IUPAC_INCHI>
InChI=1S/C20H17N3O2S/c1-25-15-9-7-13(8-10-15)12-21-19(24)17-11-16-18(22-23-20(16)26-17)14-5-3-2-4-6-14/h2-11H,12H2,1H3,(H,21,24)(H,22,23)

> <PUBCHEM_IUPAC_INCHIKEY>
OJLPXQRQXJPIKO-UHFFFAOYSA-N

> <PUBCHEM_XLOGP3_AA>
4.3

> <PUBCHEM_EXACT_MASS>
363.10414797

> <PUBCHEM_MOLECULAR_FORMULA>
C20H17N3O2S

> <PUBCHEM_MOLECULAR_WEIGHT>
363.4

> <PUBCHEM_SMILES>
COC1=CC=C(C=C1)CNC(=O)C2=CC3=C(NN=C3S2)C4=CC=CC=C4

> <PUBCHEM_OPENEYE_CAN_SMILES>
COC1=CC=C(C=C1)CNC(=O)C2=CC3=C(NN=C3S2)C4=CC=CC=C4

> <PUBCHEM_OPENEYE_ISO_SMILES>
COC1=CC=C(C=C1)CNC(=O)C2=CC3=C(NN=C3S2)C4=CC=CC=C4

> <PUBCHEM_CACTVS_TPSA>
95.3

> <PUBCHEM_MONOISOTOPIC_WEIGHT>
363.10414797

> <PUBCHEM_TOTAL_CHARGE>
0

> <PUBCHEM_HEAVY_ATOM_COUNT>
26

> <PUBCHEM_ATOM_DEF_STEREO_COUNT>
0

> <PUBCHEM_ATOM_UDEF_STEREO_COUNT>
0

> <PUBCHEM_BOND_DEF_STEREO_COUNT>
0

> <PUBCHEM_BOND_UDEF_STEREO_COUNT>
0

> <PUBCHEM_ISOTOPIC_ATOM_COUNT>
0

> <PUBCHEM_COMPONENT_COUNT>
1

> <PUBCHEM_CACTVS_TAUTO_COUNT>
-1

> <PUBCHEM_COORDINATE_TYPE>
1
5
255

> <PUBCHEM_BONDANNOTATIONS>
1  11  8
1  9  8
10  11  8
12  16  8
12  17  8
15  18  8
15  19  8
16  20  8
17  21  8
18  22  8
19  23  8
20  25  8
21  25  8
22  24  8
23  24  8
4  5  8
4  8  8
5  9  8
7  10  8
7  8  8
7  9  8

$$$$
