25210579
  -OEChem-03202500412D

 62 66  0     0  0  0  0  0  0999 V2000
    9.4328   -3.5195    0.0000 F   0  0  0  0  0  0  0  0  0  0  0  0
   10.7988   -3.8855    0.0000 F   0  0  0  0  0  0  0  0  0  0  0  0
   11.1648   -2.5195    0.0000 F   0  0  0  0  0  0  0  0  0  0  0  0
    3.4030   -0.1535    0.0000 O   0  0  0  0  0  0  0  0  0  0  0  0
    9.7988   -2.1535    0.0000 O   0  0  0  0  0  0  0  0  0  0  0  0
   11.7988    1.3106    0.0000 N   0  0  0  0  0  0  0  0  0  0  0  0
   12.7988    3.0427    0.0000 N   0  0  0  0  0  0  0  0  0  0  0  0
    5.2152   -2.9582    0.0000 N   0  0  0  0  0  0  0  0  0  0  0  0
    2.5369   -1.6535    0.0000 N   0  0  0  0  0  0  0  0  0  0  0  0
    8.7988   -0.4214    0.0000 N   0  0  0  0  0  0  0  0  0  0  0  0
    7.2988   -1.2874    0.0000 N   0  0  0  0  0  0  0  0  0  0  0  0
    8.7988   -2.1535    0.0000 N   0  0  0  0  0  0  0  0  0  0  0  0
   11.2988    2.1767    0.0000 C   0  0  0  0  0  0  0  0  0  0  0  0
   12.7988    1.3106    0.0000 C   0  0  0  0  0  0  0  0  0  0  0  0
   11.7988    3.0427    0.0000 C   0  0  0  0  0  0  0  0  0  0  0  0
   13.2988    2.1767    0.0000 C   0  0  0  0  0  0  0  0  0  0  0  0
   11.2988    0.4446    0.0000 C   0  0  0  0  0  0  0  0  0  0  0  0
    4.2690   -2.6535    0.0000 C   0  0  0  0  0  0  0  0  0  0  0  0
    3.4030   -3.1535    0.0000 C   0  0  0  0  0  0  0  0  0  0  0  0
   13.2988    3.9087    0.0000 C   0  0  0  0  0  0  0  0  0  0  0  0
    4.2690   -1.6535    0.0000 C   0  0  0  0  0  0  0  0  0  0  0  0
    5.7988   -2.1535    0.0000 C   0  0  0  0  0  0  0  0  0  0  0  0
    2.5369   -2.6535    0.0000 C   0  0  0  0  0  0  0  0  0  0  0  0
    5.2152   -1.3487    0.0000 C   0  0  0  0  0  0  0  0  0  0  0  0
   10.2988    0.4446    0.0000 C   0  0  0  0  0  0  0  0  0  0  0  0
   11.7988   -0.4214    0.0000 C   0  0  0  0  0  0  0  0  0  0  0  0
    3.4030   -1.1535    0.0000 C   0  0  0  0  0  0  0  0  0  0  0  0
    9.7988   -0.4214    0.0000 C   0  0  0  0  0  0  0  0  0  0  0  0
    5.5259   -3.9087    0.0000 C   0  0  0  0  0  0  0  0  0  0  0  0
    6.7988   -2.1535    0.0000 C   0  0  0  0  0  0  0  0  0  0  0  0
   11.2988   -1.2874    0.0000 C   0  0  0  0  0  0  0  0  0  0  0  0
   10.2988   -1.2874    0.0000 C   0  0  0  0  0  0  0  0  0  0  0  0
    8.2988   -1.2874    0.0000 C   0  0  0  0  0  0  0  0  0  0  0  0
    7.2988   -3.0195    0.0000 C   0  0  0  0  0  0  0  0  0  0  0  0
    8.2988   -3.0195    0.0000 C   0  0  0  0  0  0  0  0  0  0  0  0
   10.2988   -3.0195    0.0000 C   0  0  0  0  0  0  0  0  0  0  0  0
   10.8239    2.5752    0.0000 H   0  0  0  0  0  0  0  0  0  0  0  0
   10.8239    1.7781    0.0000 H   0  0  0  0  0  0  0  0  0  0  0  0
   12.6912    0.7001    0.0000 H   0  0  0  0  0  0  0  0  0  0  0  0
   13.3814    1.0986    0.0000 H   0  0  0  0  0  0  0  0  0  0  0  0
   11.9065    3.6533    0.0000 H   0  0  0  0  0  0  0  0  0  0  0  0
   11.2162    3.2547    0.0000 H   0  0  0  0  0  0  0  0  0  0  0  0
   13.7738    1.7781    0.0000 H   0  0  0  0  0  0  0  0  0  0  0  0
   13.7738    2.5752    0.0000 H   0  0  0  0  0  0  0  0  0  0  0  0
    3.0044   -3.6284    0.0000 H   0  0  0  0  0  0  0  0  0  0  0  0
    3.8015   -3.6284    0.0000 H   0  0  0  0  0  0  0  0  0  0  0  0
   13.8358    3.5987    0.0000 H   0  0  0  0  0  0  0  0  0  0  0  0
   13.6088    4.4456    0.0000 H   0  0  0  0  0  0  0  0  0  0  0  0
   12.7619    4.2187    0.0000 H   0  0  0  0  0  0  0  0  0  0  0  0
    1.9264   -2.5458    0.0000 H   0  0  0  0  0  0  0  0  0  0  0  0
    2.3249   -3.2361    0.0000 H   0  0  0  0  0  0  0  0  0  0  0  0
    5.4078   -0.7594    0.0000 H   0  0  0  0  0  0  0  0  0  0  0  0
    9.9888    0.9815    0.0000 H   0  0  0  0  0  0  0  0  0  0  0  0
   12.4188   -0.4214    0.0000 H   0  0  0  0  0  0  0  0  0  0  0  0
    2.0000   -1.3435    0.0000 H   0  0  0  0  0  0  0  0  0  0  0  0
    4.9366   -4.1013    0.0000 H   0  0  0  0  0  0  0  0  0  0  0  0
    5.7185   -4.4980    0.0000 H   0  0  0  0  0  0  0  0  0  0  0  0
    6.1152   -3.7161    0.0000 H   0  0  0  0  0  0  0  0  0  0  0  0
   11.6088   -1.8244    0.0000 H   0  0  0  0  0  0  0  0  0  0  0  0
    8.4888    0.1155    0.0000 H   0  0  0  0  0  0  0  0  0  0  0  0
    6.9888   -3.5564    0.0000 H   0  0  0  0  0  0  0  0  0  0  0  0
    8.6088   -3.5564    0.0000 H   0  0  0  0  0  0  0  0  0  0  0  0
  1 36  1  0  0  0  0
  2 36  1  0  0  0  0
  3 36  1  0  0  0  0
  4 27  2  0  0  0  0
  5 32  1  0  0  0  0
  5 36  1  0  0  0  0
  6 13  1  0  0  0  0
  6 14  1  0  0  0  0
  6 17  1  0  0  0  0
  7 15  1  0  0  0  0
  7 16  1  0  0  0  0
  7 20  1  0  0  0  0
  8 18  1  0  0  0  0
  8 22  1  0  0  0  0
  8 29  1  0  0  0  0
  9 23  1  0  0  0  0
  9 27  1  0  0  0  0
  9 55  1  0  0  0  0
 10 28  1  0  0  0  0
 10 33  1  0  0  0  0
 10 60  1  0  0  0  0
 11 30  2  0  0  0  0
 11 33  1  0  0  0  0
 12 33  2  0  0  0  0
 12 35  1  0  0  0  0
 13 15  1  0  0  0  0
 13 37  1  0  0  0  0
 13 38  1  0  0  0  0
 14 16  1  0  0  0  0
 14 39  1  0  0  0  0
 14 40  1  0  0  0  0
 15 41  1  0  0  0  0
 15 42  1  0  0  0  0
 16 43  1  0  0  0  0
 16 44  1  0  0  0  0
 17 25  2  0  0  0  0
 17 26  1  0  0  0  0
 18 19  1  0  0  0  0
 18 21  2  0  0  0  0
 19 23  1  0  0  0  0
 19 45  1  0  0  0  0
 19 46  1  0  0  0  0
 20 47  1  0  0  0  0
 20 48  1  0  0  0  0
 20 49  1  0  0  0  0
 21 24  1  0  0  0  0
 21 27  1  0  0  0  0
 22 24  2  0  0  0  0
 22 30  1  0  0  0  0
 23 50  1  0  0  0  0
 23 51  1  0  0  0  0
 24 52  1  0  0  0  0
 25 28  1  0  0  0  0
 25 53  1  0  0  0  0
 26 31  2  0  0  0  0
 26 54  1  0  0  0  0
 28 32  2  0  0  0  0
 29 56  1  0  0  0  0
 29 57  1  0  0  0  0
 29 58  1  0  0  0  0
 30 34  1  0  0  0  0
 31 32  1  0  0  0  0
 31 59  1  0  0  0  0
 34 35  2  0  0  0  0
 34 61  1  0  0  0  0
 35 62  1  0  0  0  0
M  END
> <PUBCHEM_COMPOUND_CID>
25210579

> <PUBCHEM_COMPOUND_CANONICALIZED>
1

> <PUBCHEM_CACTVS_COMPLEXITY>
766

> <PUBCHEM_CACTVS_HBOND_ACCEPTOR>
10

> <PUBCHEM_CACTVS_HBOND_DONOR>
2

> <PUBCHEM_CACTVS_ROTATABLE_BOND>
5

> <PUBCHEM_CACTVS_SUBSKEYS>
AAADceB7sYAAAAAAAAAAAAAAAAAAAWAAAAA8WLEAAAAAAFgB8AAAHwAQAAAADAzBnhQ/1pfMFACoAzV3dACCiCk1IqAJ2KE/bNiObvrE/duVNahs1hPY6ee8ycCeAEAAAAQAEAAAgAAACAAgAAAAAAAAAA==

> <PUBCHEM_IUPAC_OPENEYE_NAME>
1-methyl-2-[2-[5-(4-methylpiperazin-1-yl)-2-(trifluoromethoxy)anilino]pyrimidin-4-yl]-6,7-dihydro-5H-pyrrolo[3,2-c]pyridin-4-one

> <PUBCHEM_IUPAC_CAS_NAME>
1-methyl-2-[2-[5-(4-methyl-1-piperazinyl)-2-(trifluoromethoxy)anilino]-4-pyrimidinyl]-6,7-dihydro-5H-pyrrolo[3,2-c]pyridin-4-one

> <PUBCHEM_IUPAC_NAME_MARKUP>
1-methyl-2-[2-[5-(4-methylpiperazin-1-yl)-2-(trifluoromethoxy)anilino]pyrimidin-4-yl]-6,7-dihydro-5<I>H</I>-pyrrolo[3,2-c]pyridin-4-one

> <PUBCHEM_IUPAC_NAME>
1-methyl-2-[2-[5-(4-methylpiperazin-1-yl)-2-(trifluoromethoxy)anilino]pyrimidin-4-yl]-6,7-dihydro-5H-pyrrolo[3,2-c]pyridin-4-one

> <PUBCHEM_IUPAC_SYSTEMATIC_NAME>
1-methyl-2-[2-[[5-(4-methylpiperazin-1-yl)-2-(trifluoromethyloxy)phenyl]amino]pyrimidin-4-yl]-6,7-dihydro-5H-pyrrolo[3,2-c]pyridin-4-one

> <PUBCHEM_IUPAC_TRADITIONAL_NAME>
1-methyl-2-[2-[5-(4-methylpiperazino)-2-(trifluoromethoxy)anilino]pyrimidin-4-yl]-6,7-dihydro-5H-pyrrolo[3,2-c]pyridin-4-one

> <PUBCHEM_IUPAC_INCHI>
InChI=1S/C24H26F3N7O2/c1-32-9-11-34(12-10-32)15-3-4-21(36-24(25,26)27)18(13-15)31-23-29-7-5-17(30-23)20-14-16-19(33(20)2)6-8-28-22(16)35/h3-5,7,13-14H,6,8-12H2,1-2H3,(H,28,35)(H,29,30,31)

> <PUBCHEM_IUPAC_INCHIKEY>
CYXABCVHENZAID-UHFFFAOYSA-N

> <PUBCHEM_XLOGP3_AA>
3

> <PUBCHEM_EXACT_MASS>
501.21000758

> <PUBCHEM_MOLECULAR_FORMULA>
C24H26F3N7O2

> <PUBCHEM_MOLECULAR_WEIGHT>
501.5

> <PUBCHEM_SMILES>
CN1CCN(CC1)C2=CC(=C(C=C2)OC(F)(F)F)NC3=NC=CC(=N3)C4=CC5=C(N4C)CCNC5=O

> <PUBCHEM_OPENEYE_CAN_SMILES>
CN1CCN(CC1)C2=CC(=C(C=C2)OC(F)(F)F)NC3=NC=CC(=N3)C4=CC5=C(N4C)CCNC5=O

> <PUBCHEM_OPENEYE_ISO_SMILES>
CN1CCN(CC1)C2=CC(=C(C=C2)OC(F)(F)F)NC3=NC=CC(=N3)C4=CC5=C(N4C)CCNC5=O

> <PUBCHEM_CACTVS_TPSA>
87.6

> <PUBCHEM_MONOISOTOPIC_WEIGHT>
501.21000758

> <PUBCHEM_TOTAL_CHARGE>
0

> <PUBCHEM_HEAVY_ATOM_COUNT>
36

> <PUBCHEM_ATOM_DEF_STEREO_COUNT>
0

> <PUBCHEM_ATOM_UDEF_STEREO_COUNT>
0

> <PUBCHEM_BOND_DEF_STEREO_COUNT>
0

> <PUBCHEM_BOND_UDEF_STEREO_COUNT>
0

> <PUBCHEM_ISOTOPIC_ATOM_COUNT>
0

> <PUBCHEM_COMPONENT_COUNT>
1

> <PUBCHEM_CACTVS_TAUTO_COUNT>
-1

> <PUBCHEM_COORDINATE_TYPE>
1
5
255

> <PUBCHEM_BONDANNOTATIONS>
11  30  8
11  33  8
12  33  8
12  35  8
17  25  8
17  26  8
18  21  8
21  24  8
22  24  8
25  28  8
26  31  8
28  32  8
30  34  8
31  32  8
34  35  8
8  18  8
8  22  8

$$$$
