49830921
  -OEChem-03202503082D

104105  0     0  0  0  0  0  0999 V2000
    9.4651    4.0000    0.0000 O   0  0  0  0  0  0  0  0  0  0  0  0
    7.7331   -4.0000    0.0000 O   0  0  0  0  0  0  0  0  0  0  0  0
   10.3312    2.5000    0.0000 N   0  0  0  0  0  0  0  0  0  0  0  0
    6.8671   -2.5000    0.0000 N   0  0  0  0  0  0  0  0  0  0  0  0
   11.1972    4.0000    0.0000 N   0  0  0  0  0  0  0  0  0  0  0  0
    6.0010   -4.0000    0.0000 N   0  0  0  0  0  0  0  0  0  0  0  0
   12.9292    8.0000    0.0000 N   0  0  0  0  0  0  0  0  0  0  0  0
    4.2690   -8.0000    0.0000 N   0  0  0  0  0  0  0  0  0  0  0  0
    9.4651    8.0000    0.0000 N   0  0  0  0  0  0  0  0  0  0  0  0
    7.7331   -8.0000    0.0000 N   0  0  0  0  0  0  0  0  0  0  0  0
   13.7953    8.5000    0.0000 N   0  0  0  0  0  0  0  0  0  0  0  0
    3.4030   -8.5000    0.0000 N   0  0  0  0  0  0  0  0  0  0  0  0
    8.5991    8.5000    0.0000 N   0  0  0  0  0  0  0  0  0  0  0  0
    8.5991   -8.5000    0.0000 N   0  0  0  0  0  0  0  0  0  0  0  0
   14.6613   10.0000    0.0000 N   0  0  0  0  0  0  0  0  0  0  0  0
   12.9292   10.0000    0.0000 N   0  0  0  0  0  0  0  0  0  0  0  0
    2.5369  -10.0000    0.0000 N   0  0  0  0  0  0  0  0  0  0  0  0
    4.2690  -10.0000    0.0000 N   0  0  0  0  0  0  0  0  0  0  0  0
    7.7331   10.0000    0.0000 N   0  0  0  0  0  0  0  0  0  0  0  0
    9.4651   10.0000    0.0000 N   0  0  0  0  0  0  0  0  0  0  0  0
    9.4651  -10.0000    0.0000 N   0  0  0  0  0  0  0  0  0  0  0  0
    7.7331  -10.0000    0.0000 N   0  0  0  0  0  0  0  0  0  0  0  0
    8.5991    0.5000    0.0000 C   0  0  0  0  0  0  0  0  0  0  0  0
    8.5991   -0.5000    0.0000 C   0  0  0  0  0  0  0  0  0  0  0  0
    9.4651    1.0000    0.0000 C   0  0  0  0  0  0  0  0  0  0  0  0
    7.7331   -1.0000    0.0000 C   0  0  0  0  0  0  0  0  0  0  0  0
    9.4651    2.0000    0.0000 C   0  0  0  0  0  0  0  0  0  0  0  0
    7.7331   -2.0000    0.0000 C   0  0  0  0  0  0  0  0  0  0  0  0
   10.3312    3.5000    0.0000 C   0  0  0  0  0  0  0  0  0  0  0  0
    6.8671   -3.5000    0.0000 C   0  0  0  0  0  0  0  0  0  0  0  0
   11.1972    5.0000    0.0000 C   0  0  0  0  0  0  0  0  0  0  0  0
    6.0010   -5.0000    0.0000 C   0  0  0  0  0  0  0  0  0  0  0  0
   10.3312    5.5000    0.0000 C   0  0  0  0  0  0  0  0  0  0  0  0
    6.8671   -5.5000    0.0000 C   0  0  0  0  0  0  0  0  0  0  0  0
   12.0632    5.5000    0.0000 C   0  0  0  0  0  0  0  0  0  0  0  0
    5.1350   -5.5000    0.0000 C   0  0  0  0  0  0  0  0  0  0  0  0
   10.3312    6.5000    0.0000 C   0  0  0  0  0  0  0  0  0  0  0  0
    6.8671   -6.5000    0.0000 C   0  0  0  0  0  0  0  0  0  0  0  0
   12.0632    6.5000    0.0000 C   0  0  0  0  0  0  0  0  0  0  0  0
    5.1350   -6.5000    0.0000 C   0  0  0  0  0  0  0  0  0  0  0  0
   11.1972    7.0000    0.0000 C   0  0  0  0  0  0  0  0  0  0  0  0
    6.0010   -7.0000    0.0000 C   0  0  0  0  0  0  0  0  0  0  0  0
   12.9292    7.0000    0.0000 C   0  0  0  0  0  0  0  0  0  0  0  0
    4.2690   -7.0000    0.0000 C   0  0  0  0  0  0  0  0  0  0  0  0
    9.4651    7.0000    0.0000 C   0  0  0  0  0  0  0  0  0  0  0  0
    7.7331   -7.0000    0.0000 C   0  0  0  0  0  0  0  0  0  0  0  0
   13.7953    6.5000    0.0000 C   0  0  0  0  0  0  0  0  0  0  0  0
    3.4030   -6.5000    0.0000 C   0  0  0  0  0  0  0  0  0  0  0  0
    8.5991    6.5000    0.0000 C   0  0  0  0  0  0  0  0  0  0  0  0
    8.5991   -6.5000    0.0000 C   0  0  0  0  0  0  0  0  0  0  0  0
   13.7953    9.5000    0.0000 C   0  0  0  0  0  0  0  0  0  0  0  0
    3.4030   -9.5000    0.0000 C   0  0  0  0  0  0  0  0  0  0  0  0
    8.5991    9.5000    0.0000 C   0  0  0  0  0  0  0  0  0  0  0  0
    8.5991   -9.5000    0.0000 C   0  0  0  0  0  0  0  0  0  0  0  0
    8.3871    1.0826    0.0000 H   0  0  0  0  0  0  0  0  0  0  0  0
    7.9885    0.3923    0.0000 H   0  0  0  0  0  0  0  0  0  0  0  0
    8.8112   -1.0826    0.0000 H   0  0  0  0  0  0  0  0  0  0  0  0
    9.2097   -0.3923    0.0000 H   0  0  0  0  0  0  0  0  0  0  0  0
    9.6772    0.4174    0.0000 H   0  0  0  0  0  0  0  0  0  0  0  0
   10.0757    1.1077    0.0000 H   0  0  0  0  0  0  0  0  0  0  0  0
    7.5210   -0.4174    0.0000 H   0  0  0  0  0  0  0  0  0  0  0  0
    7.1225   -1.1077    0.0000 H   0  0  0  0  0  0  0  0  0  0  0  0
    9.2531    2.5826    0.0000 H   0  0  0  0  0  0  0  0  0  0  0  0
    8.8546    1.8923    0.0000 H   0  0  0  0  0  0  0  0  0  0  0  0
    7.9451   -2.5826    0.0000 H   0  0  0  0  0  0  0  0  0  0  0  0
    8.3437   -1.8923    0.0000 H   0  0  0  0  0  0  0  0  0  0  0  0
   10.8681    2.1900    0.0000 H   0  0  0  0  0  0  0  0  0  0  0  0
    6.3301   -2.1900    0.0000 H   0  0  0  0  0  0  0  0  0  0  0  0
   11.7341    3.6900    0.0000 H   0  0  0  0  0  0  0  0  0  0  0  0
    5.4641   -3.6900    0.0000 H   0  0  0  0  0  0  0  0  0  0  0  0
    9.7942    5.1900    0.0000 H   0  0  0  0  0  0  0  0  0  0  0  0
    7.4040   -5.1900    0.0000 H   0  0  0  0  0  0  0  0  0  0  0  0
   12.6002    5.1900    0.0000 H   0  0  0  0  0  0  0  0  0  0  0  0
    4.5981   -5.1900    0.0000 H   0  0  0  0  0  0  0  0  0  0  0  0
   11.1972    7.6200    0.0000 H   0  0  0  0  0  0  0  0  0  0  0  0
    6.0010   -7.6200    0.0000 H   0  0  0  0  0  0  0  0  0  0  0  0
   13.4853    5.9631    0.0000 H   0  0  0  0  0  0  0  0  0  0  0  0
   14.3322    6.1900    0.0000 H   0  0  0  0  0  0  0  0  0  0  0  0
   14.1053    7.0369    0.0000 H   0  0  0  0  0  0  0  0  0  0  0  0
    3.7130   -5.9631    0.0000 H   0  0  0  0  0  0  0  0  0  0  0  0
    2.8660   -6.1900    0.0000 H   0  0  0  0  0  0  0  0  0  0  0  0
    3.0930   -7.0369    0.0000 H   0  0  0  0  0  0  0  0  0  0  0  0
    8.2891    7.0369    0.0000 H   0  0  0  0  0  0  0  0  0  0  0  0
    8.0622    6.1900    0.0000 H   0  0  0  0  0  0  0  0  0  0  0  0
    8.9091    5.9631    0.0000 H   0  0  0  0  0  0  0  0  0  0  0  0
    8.9091   -7.0369    0.0000 H   0  0  0  0  0  0  0  0  0  0  0  0
    9.1360   -6.1900    0.0000 H   0  0  0  0  0  0  0  0  0  0  0  0
    8.2891   -5.9631    0.0000 H   0  0  0  0  0  0  0  0  0  0  0  0
   14.6613   10.6200    0.0000 H   0  0  0  0  0  0  0  0  0  0  0  0
   15.1982    9.6900    0.0000 H   0  0  0  0  0  0  0  0  0  0  0  0
   12.9292   10.6200    0.0000 H   0  0  0  0  0  0  0  0  0  0  0  0
   12.3923    9.6900    0.0000 H   0  0  0  0  0  0  0  0  0  0  0  0
    2.5369  -10.6200    0.0000 H   0  0  0  0  0  0  0  0  0  0  0  0
    2.0000   -9.6900    0.0000 H   0  0  0  0  0  0  0  0  0  0  0  0
    4.2690  -10.6200    0.0000 H   0  0  0  0  0  0  0  0  0  0  0  0
    4.8059   -9.6900    0.0000 H   0  0  0  0  0  0  0  0  0  0  0  0
    7.7331   10.6200    0.0000 H   0  0  0  0  0  0  0  0  0  0  0  0
    7.1962    9.6900    0.0000 H   0  0  0  0  0  0  0  0  0  0  0  0
    9.4651   10.6200    0.0000 H   0  0  0  0  0  0  0  0  0  0  0  0
   10.0021    9.6900    0.0000 H   0  0  0  0  0  0  0  0  0  0  0  0
    9.4651  -10.6200    0.0000 H   0  0  0  0  0  0  0  0  0  0  0  0
   10.0021   -9.6900    0.0000 H   0  0  0  0  0  0  0  0  0  0  0  0
    7.7331  -10.6200    0.0000 H   0  0  0  0  0  0  0  0  0  0  0  0
    7.1962   -9.6900    0.0000 H   0  0  0  0  0  0  0  0  0  0  0  0
  1 29  2  0  0  0  0
  2 30  2  0  0  0  0
  3 27  1  0  0  0  0
  3 29  1  0  0  0  0
  3 67  1  0  0  0  0
  4 28  1  0  0  0  0
  4 30  1  0  0  0  0
  4 68  1  0  0  0  0
  5 29  1  0  0  0  0
  5 31  1  0  0  0  0
  5 69  1  0  0  0  0
  6 30  1  0  0  0  0
  6 32  1  0  0  0  0
  6 70  1  0  0  0  0
  7 11  1  0  0  0  0
  7 43  2  3  0  0  0
  8 12  1  0  0  0  0
  8 44  2  3  0  0  0
  9 13  1  0  0  0  0
  9 45  2  3  0  0  0
 10 14  1  0  0  0  0
 10 46  2  3  0  0  0
 11 51  2  0  0  0  0
 12 52  2  0  0  0  0
 13 53  2  0  0  0  0
 14 54  2  0  0  0  0
 15 51  1  0  0  0  0
 15 89  1  0  0  0  0
 15 90  1  0  0  0  0
 16 51  1  0  0  0  0
 16 91  1  0  0  0  0
 16 92  1  0  0  0  0
 17 52  1  0  0  0  0
 17 93  1  0  0  0  0
 17 94  1  0  0  0  0
 18 52  1  0  0  0  0
 18 95  1  0  0  0  0
 18 96  1  0  0  0  0
 19 53  1  0  0  0  0
 19 97  1  0  0  0  0
 19 98  1  0  0  0  0
 20 53  1  0  0  0  0
 20 99  1  0  0  0  0
 20100  1  0  0  0  0
 21 54  1  0  0  0  0
 21101  1  0  0  0  0
 21102  1  0  0  0  0
 22 54  1  0  0  0  0
 22103  1  0  0  0  0
 22104  1  0  0  0  0
 23 24  1  0  0  0  0
 23 25  1  0  0  0  0
 23 55  1  0  0  0  0
 23 56  1  0  0  0  0
 24 26  1  0  0  0  0
 24 57  1  0  0  0  0
 24 58  1  0  0  0  0
 25 27  1  0  0  0  0
 25 59  1  0  0  0  0
 25 60  1  0  0  0  0
 26 28  1  0  0  0  0
 26 61  1  0  0  0  0
 26 62  1  0  0  0  0
 27 63  1  0  0  0  0
 27 64  1  0  0  0  0
 28 65  1  0  0  0  0
 28 66  1  0  0  0  0
 31 33  2  0  0  0  0
 31 35  1  0  0  0  0
 32 34  2  0  0  0  0
 32 36  1  0  0  0  0
 33 37  1  0  0  0  0
 33 71  1  0  0  0  0
 34 38  1  0  0  0  0
 34 72  1  0  0  0  0
 35 39  2  0  0  0  0
 35 73  1  0  0  0  0
 36 40  2  0  0  0  0
 36 74  1  0  0  0  0
 37 41  2  0  0  0  0
 37 45  1  0  0  0  0
 38 42  2  0  0  0  0
 38 46  1  0  0  0  0
 39 41  1  0  0  0  0
 39 43  1  0  0  0  0
 40 42  1  0  0  0  0
 40 44  1  0  0  0  0
 41 75  1  0  0  0  0
 42 76  1  0  0  0  0
 43 47  1  0  0  0  0
 44 48  1  0  0  0  0
 45 49  1  0  0  0  0
 46 50  1  0  0  0  0
 47 77  1  0  0  0  0
 47 78  1  0  0  0  0
 47 79  1  0  0  0  0
 48 80  1  0  0  0  0
 48 81  1  0  0  0  0
 48 82  1  0  0  0  0
 49 83  1  0  0  0  0
 49 84  1  0  0  0  0
 49 85  1  0  0  0  0
 50 86  1  0  0  0  0
 50 87  1  0  0  0  0
 50 88  1  0  0  0  0
M  END
> <PUBCHEM_COMPOUND_CID>
49830921

> <PUBCHEM_COMPOUND_CANONICALIZED>
1

> <PUBCHEM_CACTVS_COMPLEXITY>
1290

> <PUBCHEM_CACTVS_HBOND_ACCEPTOR>
10

> <PUBCHEM_CACTVS_HBOND_DONOR>
12

> <PUBCHEM_CACTVS_ROTATABLE_BOND>
17

> <PUBCHEM_CACTVS_SUBSKEYS>
AAADcfB/8AAAAAAAAAAAAAAAAAAAAAAAAAAwYAAAAAAAAAABQAAAHgAYAAAADAjBGAQzwILAAACoAyRicACCAAAhAgAAiIA4ZJiIIKLAkZGEIAholgJIyCcQgMAOAAACQAAAAAAAAASAAAAAAAAAAAAAAA==

> <PUBCHEM_IUPAC_OPENEYE_NAME>
1-[3,5-bis(N-guanidino-C-methyl-carbonimidoyl)phenyl]-3-[6-[[3,5-bis(N-guanidino-C-methyl-carbonimidoyl)phenyl]carbamoylamino]hexyl]urea

> <PUBCHEM_IUPAC_CAS_NAME>
1-[6-[[[3,5-bis[1-(diaminomethylidenehydrazinylidene)ethyl]anilino]-oxomethyl]amino]hexyl]-3-[3,5-bis[1-(diaminomethylidenehydrazinylidene)ethyl]phenyl]urea

> <PUBCHEM_IUPAC_NAME_MARKUP>
1-[3,5-bis[<I>N</I>-(diaminomethylideneamino)-<I>C</I>-methylcarbonimidoyl]phenyl]-3-[6-[[3,5-bis[<I>N</I>-(diaminomethylideneamino)-<I>C</I>-methylcarbonimidoyl]phenyl]carbamoylamino]hexyl]urea

> <PUBCHEM_IUPAC_NAME>
1-[3,5-bis[N-(diaminomethylideneamino)-C-methylcarbonimidoyl]phenyl]-3-[6-[[3,5-bis[N-(diaminomethylideneamino)-C-methylcarbonimidoyl]phenyl]carbamoylamino]hexyl]urea

> <PUBCHEM_IUPAC_SYSTEMATIC_NAME>
1-[3,5-bis[N-[bis(azanyl)methylideneamino]-C-methyl-carbonimidoyl]phenyl]-3-[6-[[3,5-bis[N-[bis(azanyl)methylideneamino]-C-methyl-carbonimidoyl]phenyl]carbamoylamino]hexyl]urea

> <PUBCHEM_IUPAC_TRADITIONAL_NAME>
1-[3,5-bis(N-guanidino-C-methyl-carbonimidoyl)phenyl]-3-[6-[[3,5-bis(N-guanidino-C-methyl-carbonimidoyl)phenyl]carbamoylamino]hexyl]urea

> <PUBCHEM_IUPAC_INCHI>
InChI=1S/C32H50N20O2/c1-17(45-49-27(33)34)21-11-22(18(2)46-50-28(35)36)14-25(13-21)43-31(53)41-9-7-5-6-8-10-42-32(54)44-26-15-23(19(3)47-51-29(37)38)12-24(16-26)20(4)48-52-30(39)40/h11-16H,5-10H2,1-4H3,(H4,33,34,49)(H4,35,36,50)(H4,37,38,51)(H4,39,40,52)(H2,41,43,53)(H2,42,44,54)

> <PUBCHEM_IUPAC_INCHIKEY>
USHMNZBDAOGLMB-UHFFFAOYSA-N

> <PUBCHEM_XLOGP3_AA>
-1.8

> <PUBCHEM_EXACT_MASS>
746.44256092

> <PUBCHEM_MOLECULAR_FORMULA>
C32H50N20O2

> <PUBCHEM_MOLECULAR_WEIGHT>
746.9

> <PUBCHEM_SMILES>
CC(=NN=C(N)N)C1=CC(=CC(=C1)NC(=O)NCCCCCCNC(=O)NC2=CC(=CC(=C2)C(=NN=C(N)N)C)C(=NN=C(N)N)C)C(=NN=C(N)N)C

> <PUBCHEM_OPENEYE_CAN_SMILES>
CC(=NN=C(N)N)C1=CC(=CC(=C1)NC(=O)NCCCCCCNC(=O)NC2=CC(=CC(=C2)C(=NN=C(N)N)C)C(=NN=C(N)N)C)C(=NN=C(N)N)C

> <PUBCHEM_OPENEYE_ISO_SMILES>
CC(=NN=C(N)N)C1=CC(=CC(=C1)NC(=O)NCCCCCCNC(=O)NC2=CC(=CC(=C2)C(=NN=C(N)N)C)C(=NN=C(N)N)C)C(=NN=C(N)N)C

> <PUBCHEM_CACTVS_TPSA>
389

> <PUBCHEM_MONOISOTOPIC_WEIGHT>
746.44256092

> <PUBCHEM_TOTAL_CHARGE>
0

> <PUBCHEM_HEAVY_ATOM_COUNT>
54

> <PUBCHEM_ATOM_DEF_STEREO_COUNT>
0

> <PUBCHEM_ATOM_UDEF_STEREO_COUNT>
0

> <PUBCHEM_BOND_DEF_STEREO_COUNT>
0

> <PUBCHEM_BOND_UDEF_STEREO_COUNT>
4

> <PUBCHEM_ISOTOPIC_ATOM_COUNT>
0

> <PUBCHEM_COMPONENT_COUNT>
1

> <PUBCHEM_CACTVS_TAUTO_COUNT>
-1

> <PUBCHEM_COORDINATE_TYPE>
1
5
255

> <PUBCHEM_BONDANNOTATIONS>
10  46  1
31  33  8
31  35  8
32  34  8
32  36  8
33  37  8
34  38  8
35  39  8
36  40  8
37  41  8
38  42  8
39  41  8
40  42  8
7  43  1
8  44  1
9  45  1

$$$$
