21362732
  -OEChem-03202507202D

 28 30  0     0  0  0  0  0  0999 V2000
    7.3991   -2.3167    0.0000 Cl  0  0  0  0  0  0  0  0  0  0  0  0
    8.3031    0.6268    0.0000 O   0  0  0  0  0  0  0  0  0  0  0  0
    4.5274    0.5439    0.0000 N   0  0  0  0  0  0  0  0  0  0  0  0
    6.6498    1.1429    0.0000 N   0  0  0  0  0  0  0  0  0  0  0  0
    2.0000   -0.5803    0.0000 N   0  0  0  0  0  0  0  0  0  0  0  0
    5.3364   -0.0439    0.0000 C   0  0  0  0  0  0  0  0  0  0  0  0
    5.0274   -0.9949    0.0000 C   0  0  0  0  0  0  0  0  0  0  0  0
    4.0274   -0.9949    0.0000 C   0  0  0  0  0  0  0  0  0  0  0  0
    3.7183   -0.0439    0.0000 C   0  0  0  0  0  0  0  0  0  0  0  0
    6.3518    0.1884    0.0000 C   0  0  0  0  0  0  0  0  0  0  0  0
    5.7123   -1.7797    0.0000 C   0  0  0  0  0  0  0  0  0  0  0  0
    7.0547   -0.5803    0.0000 C   0  0  0  0  0  0  0  0  0  0  0  0
    3.3424   -1.7797    0.0000 C   0  0  0  0  0  0  0  0  0  0  0  0
    6.7328   -1.5710    0.0000 C   0  0  0  0  0  0  0  0  0  0  0  0
    2.7029    0.1884    0.0000 C   0  0  0  0  0  0  0  0  0  0  0  0
    2.3219   -1.5710    0.0000 C   0  0  0  0  0  0  0  0  0  0  0  0
    7.6255    1.3621    0.0000 C   0  0  0  0  0  0  0  0  0  0  0  0
    7.9235    2.3167    0.0000 C   0  0  0  0  0  0  0  0  0  0  0  0
    4.5274    1.1639    0.0000 H   0  0  0  0  0  0  0  0  0  0  0  0
    5.5139   -2.3671    0.0000 H   0  0  0  0  0  0  0  0  0  0  0  0
    7.6607   -0.4491    0.0000 H   0  0  0  0  0  0  0  0  0  0  0  0
    3.5408   -2.3671    0.0000 H   0  0  0  0  0  0  0  0  0  0  0  0
    2.5182    0.7802    0.0000 H   0  0  0  0  0  0  0  0  0  0  0  0
    6.2296    1.5989    0.0000 H   0  0  0  0  0  0  0  0  0  0  0  0
    1.9088   -2.0333    0.0000 H   0  0  0  0  0  0  0  0  0  0  0  0
    8.5153    2.1319    0.0000 H   0  0  0  0  0  0  0  0  0  0  0  0
    8.1082    2.9085    0.0000 H   0  0  0  0  0  0  0  0  0  0  0  0
    7.3316    2.5015    0.0000 H   0  0  0  0  0  0  0  0  0  0  0  0
  1 14  1  0  0  0  0
  2 17  2  0  0  0  0
  3  6  1  0  0  0  0
  3  9  1  0  0  0  0
  3 19  1  0  0  0  0
  4 10  1  0  0  0  0
  4 17  1  0  0  0  0
  4 24  1  0  0  0  0
  5 15  2  0  0  0  0
  5 16  1  0  0  0  0
  6  7  2  0  0  0  0
  6 10  1  0  0  0  0
  7  8  1  0  0  0  0
  7 11  1  0  0  0  0
  8  9  2  0  0  0  0
  8 13  1  0  0  0  0
  9 15  1  0  0  0  0
 10 12  2  0  0  0  0
 11 14  2  0  0  0  0
 11 20  1  0  0  0  0
 12 14  1  0  0  0  0
 12 21  1  0  0  0  0
 13 16  2  0  0  0  0
 13 22  1  0  0  0  0
 15 23  1  0  0  0  0
 16 25  1  0  0  0  0
 17 18  1  0  0  0  0
 18 26  1  0  0  0  0
 18 27  1  0  0  0  0
 18 28  1  0  0  0  0
M  END
> <PUBCHEM_COMPOUND_CID>
21362732

> <PUBCHEM_COMPOUND_CANONICALIZED>
1

> <PUBCHEM_CACTVS_COMPLEXITY>
338

> <PUBCHEM_CACTVS_HBOND_ACCEPTOR>
2

> <PUBCHEM_CACTVS_HBOND_DONOR>
2

> <PUBCHEM_CACTVS_ROTATABLE_BOND>
1

> <PUBCHEM_CACTVS_SUBSKEYS>
AAADccBzIAAEAAAAAAAAAAAAAAAAAWAAAAA8QAAAAAAAAFgB/gAAHgIQAAAADArBniQ+wPLJkACoAzV3VACCgCQxFyAI2SA4dpgIYOLBk5GUIAhglADIyAcQgMAOgABAYAICACAAAIDABAQAQAAAAAAAAA==

> <PUBCHEM_IUPAC_OPENEYE_NAME>
N-(6-chloro-9H-pyrido[3,4-b]indol-8-yl)acetamide

> <PUBCHEM_IUPAC_CAS_NAME>
N-(6-chloro-9H-pyrido[3,4-b]indol-8-yl)acetamide

> <PUBCHEM_IUPAC_NAME_MARKUP>
<I>N</I>-(6-chloro-9<I>H</I>-pyrido[3,4-b]indol-8-yl)acetamide

> <PUBCHEM_IUPAC_NAME>
N-(6-chloro-9H-pyrido[3,4-b]indol-8-yl)acetamide

> <PUBCHEM_IUPAC_SYSTEMATIC_NAME>
N-(6-chloranyl-9H-pyrido[3,4-b]indol-8-yl)ethanamide

> <PUBCHEM_IUPAC_TRADITIONAL_NAME>
N-(6-chloro-9H-beta-carbolin-8-yl)acetamide

> <PUBCHEM_IUPAC_INCHI>
InChI=1S/C13H10ClN3O/c1-7(18)16-11-5-8(14)4-10-9-2-3-15-6-12(9)17-13(10)11/h2-6,17H,1H3,(H,16,18)

> <PUBCHEM_IUPAC_INCHIKEY>
UNYBDMHTBISCGP-UHFFFAOYSA-N

> <PUBCHEM_XLOGP3_AA>
2.1

> <PUBCHEM_EXACT_MASS>
259.0512396

> <PUBCHEM_MOLECULAR_FORMULA>
C13H10ClN3O

> <PUBCHEM_MOLECULAR_WEIGHT>
259.69

> <PUBCHEM_SMILES>
CC(=O)NC1=CC(=CC2=C1NC3=C2C=CN=C3)Cl

> <PUBCHEM_OPENEYE_CAN_SMILES>
CC(=O)NC1=CC(=CC2=C1NC3=C2C=CN=C3)Cl

> <PUBCHEM_OPENEYE_ISO_SMILES>
CC(=O)NC1=CC(=CC2=C1NC3=C2C=CN=C3)Cl

> <PUBCHEM_CACTVS_TPSA>
57.8

> <PUBCHEM_MONOISOTOPIC_WEIGHT>
259.0512396

> <PUBCHEM_TOTAL_CHARGE>
0

> <PUBCHEM_HEAVY_ATOM_COUNT>
18

> <PUBCHEM_ATOM_DEF_STEREO_COUNT>
0

> <PUBCHEM_ATOM_UDEF_STEREO_COUNT>
0

> <PUBCHEM_BOND_DEF_STEREO_COUNT>
0

> <PUBCHEM_BOND_UDEF_STEREO_COUNT>
0

> <PUBCHEM_ISOTOPIC_ATOM_COUNT>
0

> <PUBCHEM_COMPONENT_COUNT>
1

> <PUBCHEM_CACTVS_TAUTO_COUNT>
-1

> <PUBCHEM_COORDINATE_TYPE>
1
5
255

> <PUBCHEM_BONDANNOTATIONS>
10  12  8
11  14  8
12  14  8
13  16  8
3  6  8
3  9  8
5  15  8
5  16  8
6  10  8
6  7  8
7  11  8
7  8  8
8  13  8
8  9  8
9  15  8

$$$$
