44378581
  -OEChem-03202505062D

153154  0     1  0  0  0  0  0999 V2000
   10.2645   -4.2270    0.0000 S   0  0  0  0  0  0  0  0  0  0  0  0
    9.7331    0.2730    0.0000 O   0  0  0  0  0  0  0  0  0  0  0  0
   12.4651    2.7730    0.0000 O   0  0  0  0  0  0  0  0  0  0  0  0
    7.0010    2.7730    0.0000 O   0  0  0  0  0  0  0  0  0  0  0  0
   15.1972    0.2730    0.0000 O   0  0  0  0  0  0  0  0  0  0  0  0
   16.9292    3.2730    0.0000 O   0  0  0  0  0  0  0  0  0  0  0  0
    3.4030    1.7730    0.0000 O   0  0  0  0  0  0  0  0  0  0  0  0
    4.2690    0.2730    0.0000 O   0  0  0  0  0  0  0  0  0  0  0  0
   14.7286   -6.7270    0.0000 O   0  0  0  0  0  0  0  0  0  0  0  0
   10.2645   -3.2270    0.0000 O   0  0  0  0  0  0  0  0  0  0  0  0
   11.2645   -4.2270    0.0000 O   0  0  0  0  0  0  0  0  0  0  0  0
   11.9965   -4.2270    0.0000 O   0  0  0  0  0  0  0  0  0  0  0  0
   11.4651    1.2730    0.0000 N   0  0  0  0  0  0  0  0  0  0  0  0
    8.7331    1.7730    0.0000 N   0  0  0  0  0  0  0  0  0  0  0  0
   14.1972    1.7730    0.0000 N   0  0  0  0  0  0  0  0  0  0  0  0
    6.0010    1.2730    0.0000 N   0  0  0  0  0  0  0  0  0  0  0  0
   16.9292    1.2730    0.0000 N   0  0  0  0  0  0  0  0  0  0  0  0
    8.8671    4.7730    0.0000 N   0  0  0  0  0  0  0  0  0  0  0  0
    5.2690   -0.2270    0.0000 N   0  0  0  0  0  0  0  0  0  0  0  0
   15.6972   -1.0930    0.0000 N   0  0  0  0  0  0  0  0  0  0  0  0
   12.9965   -5.7270    0.0000 N   0  0  0  0  0  0  0  0  0  0  0  0
   10.2645   -5.2270    0.0000 N   0  0  0  0  0  0  0  0  0  0  0  0
    3.4030    4.7730    0.0000 N   0  0  0  0  0  0  0  0  0  0  0  0
    6.2645   -4.2270    0.0000 N   0  0  0  0  0  0  0  0  0  0  0  0
    8.0010    6.2730    0.0000 N   0  0  0  0  0  0  0  0  0  0  0  0
    9.7331    6.2730    0.0000 N   0  0  0  0  0  0  0  0  0  0  0  0
    4.4030   -1.7270    0.0000 N   0  0  0  0  0  0  0  0  0  0  0  0
    6.1350   -1.7270    0.0000 N   0  0  0  0  0  0  0  0  0  0  0  0
   17.1972   -1.9590    0.0000 N   0  0  0  0  0  0  0  0  0  0  0  0
   15.6973   -2.8250    0.0000 N   0  0  0  0  0  0  0  0  0  0  0  0
    2.5369    6.2730    0.0000 N   0  0  0  0  0  0  0  0  0  0  0  0
    4.2690    6.2730    0.0000 N   0  0  0  0  0  0  0  0  0  0  0  0
   10.5991    1.7730    0.0000 C   0  0  1  0  0  0  0  0  0  0  0  0
    7.8671    1.2730    0.0000 C   0  0  1  0  0  0  0  0  0  0  0  0
   10.5991    2.7730    0.0000 C   0  0  0  0  0  0  0  0  0  0  0  0
   13.3312    1.2730    0.0000 C   0  0  1  0  0  0  0  0  0  0  0  0
    7.8671    0.2730    0.0000 C   0  0  0  0  0  0  0  0  0  0  0  0
    9.7331    1.2730    0.0000 C   0  0  0  0  0  0  0  0  0  0  0  0
   13.3312    0.2730    0.0000 C   0  0  0  0  0  0  0  0  0  0  0  0
    9.7331    3.2730    0.0000 C   0  0  0  0  0  0  0  0  0  0  0  0
   12.4651    1.7730    0.0000 C   0  0  0  0  0  0  0  0  0  0  0  0
    7.0010   -0.2270    0.0000 C   0  0  0  0  0  0  0  0  0  0  0  0
    7.0010    1.7730    0.0000 C   0  0  0  0  0  0  0  0  0  0  0  0
   14.1972   -0.2270    0.0000 C   0  0  0  0  0  0  0  0  0  0  0  0
    5.1350    1.7730    0.0000 C   0  0  1  0  0  0  0  0  0  0  0  0
    9.7331    4.2730    0.0000 C   0  0  0  0  0  0  0  0  0  0  0  0
    5.1350    2.7730    0.0000 C   0  0  0  0  0  0  0  0  0  0  0  0
   16.0632    1.7730    0.0000 C   0  0  2  0  0  0  0  0  0  0  0  0
   15.1972    1.2730    0.0000 C   0  0  0  0  0  0  0  0  0  0  0  0
    6.1350    0.2730    0.0000 C   0  0  0  0  0  0  0  0  0  0  0  0
   14.6973   -1.0930    0.0000 C   0  0  0  0  0  0  0  0  0  0  0  0
    4.2690    3.2730    0.0000 C   0  0  0  0  0  0  0  0  0  0  0  0
   16.0632    2.7730    0.0000 C   0  0  0  0  0  0  0  0  0  0  0  0
    4.2690    1.2730    0.0000 C   0  0  0  0  0  0  0  0  0  0  0  0
   13.8626   -5.2270    0.0000 C   0  0  2  0  0  0  0  0  0  0  0  0
    4.2690    4.2730    0.0000 C   0  0  0  0  0  0  0  0  0  0  0  0
   14.7286   -5.7270    0.0000 C   0  0  0  0  0  0  0  0  0  0  0  0
   11.1305   -5.7270    0.0000 C   0  0  2  0  0  0  0  0  0  0  0  0
    9.2645   -4.2270    0.0000 C   0  0  0  0  0  0  0  0  0  0  0  0
    8.7645   -5.0930    0.0000 C   0  0  0  0  0  0  0  0  0  0  0  0
   11.9965   -5.2270    0.0000 C   0  0  0  0  0  0  0  0  0  0  0  0
    7.7645   -5.0930    0.0000 C   0  0  0  0  0  0  0  0  0  0  0  0
   13.8626   -4.2270    0.0000 C   0  0  0  0  0  0  0  0  0  0  0  0
    7.2645   -4.2270    0.0000 C   0  0  0  0  0  0  0  0  0  0  0  0
    8.7645   -3.3610    0.0000 C   0  0  0  0  0  0  0  0  0  0  0  0
   11.1305   -6.7270    0.0000 C   0  0  0  0  0  0  0  0  0  0  0  0
    8.8671    5.7730    0.0000 C   0  0  0  0  0  0  0  0  0  0  0  0
    7.7645   -3.3610    0.0000 C   0  0  0  0  0  0  0  0  0  0  0  0
    9.2992   -5.9870    0.0000 C   0  0  0  0  0  0  0  0  0  0  0  0
    5.2690   -1.2270    0.0000 C   0  0  0  0  0  0  0  0  0  0  0  0
    7.2298   -5.9870    0.0000 C   0  0  0  0  0  0  0  0  0  0  0  0
   16.1972   -1.9590    0.0000 C   0  0  0  0  0  0  0  0  0  0  0  0
    8.7853   -6.8930    0.0000 C   0  0  0  0  0  0  0  0  0  0  0  0
    7.7437   -6.8930    0.0000 C   0  0  0  0  0  0  0  0  0  0  0  0
    5.7645   -5.0930    0.0000 C   0  0  0  0  0  0  0  0  0  0  0  0
    5.7645   -3.3610    0.0000 C   0  0  0  0  0  0  0  0  0  0  0  0
    3.4030    5.7730    0.0000 C   0  0  0  0  0  0  0  0  0  0  0  0
   11.1360    2.0830    0.0000 H   0  0  0  0  0  0  0  0  0  0  0  0
    8.4040    0.9630    0.0000 H   0  0  0  0  0  0  0  0  0  0  0  0
   11.2097    2.6654    0.0000 H   0  0  0  0  0  0  0  0  0  0  0  0
   10.8112    3.3556    0.0000 H   0  0  0  0  0  0  0  0  0  0  0  0
   13.8681    0.9630    0.0000 H   0  0  0  0  0  0  0  0  0  0  0  0
    8.0791   -0.3096    0.0000 H   0  0  0  0  0  0  0  0  0  0  0  0
    8.4776    0.3807    0.0000 H   0  0  0  0  0  0  0  0  0  0  0  0
   12.7206    0.3807    0.0000 H   0  0  0  0  0  0  0  0  0  0  0  0
   13.1191   -0.3096    0.0000 H   0  0  0  0  0  0  0  0  0  0  0  0
   12.0021    0.9630    0.0000 H   0  0  0  0  0  0  0  0  0  0  0  0
    9.2700    2.0830    0.0000 H   0  0  0  0  0  0  0  0  0  0  0  0
    9.1225    3.3807    0.0000 H   0  0  0  0  0  0  0  0  0  0  0  0
    9.5210    2.6904    0.0000 H   0  0  0  0  0  0  0  0  0  0  0  0
    6.6025   -0.7019    0.0000 H   0  0  0  0  0  0  0  0  0  0  0  0
    7.3996   -0.7019    0.0000 H   0  0  0  0  0  0  0  0  0  0  0  0
   14.8078   -0.1193    0.0000 H   0  0  0  0  0  0  0  0  0  0  0  0
   13.7588   -0.6654    0.0000 H   0  0  0  0  0  0  0  0  0  0  0  0
   14.7341    2.0830    0.0000 H   0  0  0  0  0  0  0  0  0  0  0  0
    5.6720    2.0830    0.0000 H   0  0  0  0  0  0  0  0  0  0  0  0
    6.5380    0.9630    0.0000 H   0  0  0  0  0  0  0  0  0  0  0  0
   10.3437    4.1654    0.0000 H   0  0  0  0  0  0  0  0  0  0  0  0
    9.9451    4.8556    0.0000 H   0  0  0  0  0  0  0  0  0  0  0  0
    5.7456    2.6654    0.0000 H   0  0  0  0  0  0  0  0  0  0  0  0
    5.3471    3.3556    0.0000 H   0  0  0  0  0  0  0  0  0  0  0  0
   16.6001    2.0830    0.0000 H   0  0  0  0  0  0  0  0  0  0  0  0
    6.5335    0.7480    0.0000 H   0  0  0  0  0  0  0  0  0  0  0  0
    5.7365    0.7480    0.0000 H   0  0  0  0  0  0  0  0  0  0  0  0
   14.1147   -1.3050    0.0000 H   0  0  0  0  0  0  0  0  0  0  0  0
   14.8049   -1.7035    0.0000 H   0  0  0  0  0  0  0  0  0  0  0  0
    3.6584    3.3807    0.0000 H   0  0  0  0  0  0  0  0  0  0  0  0
    4.0569    2.6904    0.0000 H   0  0  0  0  0  0  0  0  0  0  0  0
   17.4662    0.9630    0.0000 H   0  0  0  0  0  0  0  0  0  0  0  0
   15.8512    3.3556    0.0000 H   0  0  0  0  0  0  0  0  0  0  0  0
   15.4526    2.6654    0.0000 H   0  0  0  0  0  0  0  0  0  0  0  0
   13.3256   -4.9170    0.0000 H   0  0  0  0  0  0  0  0  0  0  0  0
    4.8796    4.1654    0.0000 H   0  0  0  0  0  0  0  0  0  0  0  0
    4.4810    4.8556    0.0000 H   0  0  0  0  0  0  0  0  0  0  0  0
   10.5936   -6.0370    0.0000 H   0  0  0  0  0  0  0  0  0  0  0  0
   13.5335   -6.0370    0.0000 H   0  0  0  0  0  0  0  0  0  0  0  0
   10.8014   -5.5370    0.0000 H   0  0  0  0  0  0  0  0  0  0  0  0
   14.4826   -4.2270    0.0000 H   0  0  0  0  0  0  0  0  0  0  0  0
   13.8626   -3.6070    0.0000 H   0  0  0  0  0  0  0  0  0  0  0  0
   13.2426   -4.2270    0.0000 H   0  0  0  0  0  0  0  0  0  0  0  0
    9.0745   -2.8240    0.0000 H   0  0  0  0  0  0  0  0  0  0  0  0
   10.5105   -6.7270    0.0000 H   0  0  0  0  0  0  0  0  0  0  0  0
   11.1305   -7.3470    0.0000 H   0  0  0  0  0  0  0  0  0  0  0  0
   11.7505   -6.7270    0.0000 H   0  0  0  0  0  0  0  0  0  0  0  0
    7.4545   -2.8240    0.0000 H   0  0  0  0  0  0  0  0  0  0  0  0
   16.9292    3.8930    0.0000 H   0  0  0  0  0  0  0  0  0  0  0  0
    9.9191   -5.9798    0.0000 H   0  0  0  0  0  0  0  0  0  0  0  0
    2.8660    1.4630    0.0000 H   0  0  0  0  0  0  0  0  0  0  0  0
    6.6099   -5.9798    0.0000 H   0  0  0  0  0  0  0  0  0  0  0  0
    9.0974   -7.4288    0.0000 H   0  0  0  0  0  0  0  0  0  0  0  0
    7.4316   -7.4288    0.0000 H   0  0  0  0  0  0  0  0  0  0  0  0
    5.2276   -4.7830    0.0000 H   0  0  0  0  0  0  0  0  0  0  0  0
    5.4545   -5.6300    0.0000 H   0  0  0  0  0  0  0  0  0  0  0  0
    6.3014   -5.4030    0.0000 H   0  0  0  0  0  0  0  0  0  0  0  0
    6.3014   -3.0510    0.0000 H   0  0  0  0  0  0  0  0  0  0  0  0
    5.4545   -2.8240    0.0000 H   0  0  0  0  0  0  0  0  0  0  0  0
    5.2276   -3.6710    0.0000 H   0  0  0  0  0  0  0  0  0  0  0  0
    8.0010    6.8930    0.0000 H   0  0  0  0  0  0  0  0  0  0  0  0
    7.4641    5.9630    0.0000 H   0  0  0  0  0  0  0  0  0  0  0  0
    9.7331    6.8930    0.0000 H   0  0  0  0  0  0  0  0  0  0  0  0
   10.2700    5.9630    0.0000 H   0  0  0  0  0  0  0  0  0  0  0  0
    4.4030   -2.3470    0.0000 H   0  0  0  0  0  0  0  0  0  0  0  0
    3.8660   -1.4170    0.0000 H   0  0  0  0  0  0  0  0  0  0  0  0
    6.6720   -1.4170    0.0000 H   0  0  0  0  0  0  0  0  0  0  0  0
    6.1350   -2.3470    0.0000 H   0  0  0  0  0  0  0  0  0  0  0  0
   17.5072   -1.4221    0.0000 H   0  0  0  0  0  0  0  0  0  0  0  0
   17.5072   -2.4960    0.0000 H   0  0  0  0  0  0  0  0  0  0  0  0
   15.0773   -2.8250    0.0000 H   0  0  0  0  0  0  0  0  0  0  0  0
   16.0073   -3.3619    0.0000 H   0  0  0  0  0  0  0  0  0  0  0  0
    2.5369    6.8930    0.0000 H   0  0  0  0  0  0  0  0  0  0  0  0
    2.0000    5.9630    0.0000 H   0  0  0  0  0  0  0  0  0  0  0  0
    4.2690    6.8930    0.0000 H   0  0  0  0  0  0  0  0  0  0  0  0
    4.8059    5.9630    0.0000 H   0  0  0  0  0  0  0  0  0  0  0  0
  1 10  2  0  0  0  0
  1 11  2  0  0  0  0
  1 22  1  0  0  0  0
  1 59  1  0  0  0  0
  2 38  2  0  0  0  0
  3 41  2  0  0  0  0
  4 43  2  0  0  0  0
  5 49  2  0  0  0  0
  6 53  1  0  0  0  0
  6126  1  0  0  0  0
  7 54  1  0  0  0  0
  7128  1  0  0  0  0
  8 54  2  0  0  0  0
  9 57  2  0  0  0  0
 12 61  2  0  0  0  0
 33 13  1  6  0  0  0
 13 41  1  0  0  0  0
 13 87  1  0  0  0  0
 34 14  1  1  0  0  0
 14 38  1  0  0  0  0
 14 88  1  0  0  0  0
 36 15  1  1  0  0  0
 15 49  1  0  0  0  0
 15 95  1  0  0  0  0
 16 43  1  0  0  0  0
 45 16  1  6  0  0  0
 16 97  1  0  0  0  0
 48 17  1  6  0  0  0
 17 57  1  0  0  0  0
 17109  1  0  0  0  0
 18 46  1  0  0  0  0
 18 67  2  0  0  0  0
 19 50  1  0  0  0  0
 19 70  2  0  0  0  0
 20 51  1  0  0  0  0
 20 72  2  0  0  0  0
 55 21  1  1  0  0  0
 21 61  1  0  0  0  0
 21116  1  0  0  0  0
 58 22  1  6  0  0  0
 22117  1  0  0  0  0
 23 56  1  0  0  0  0
 23 77  2  0  0  0  0
 24 64  1  0  0  0  0
 24 75  1  0  0  0  0
 24 76  1  0  0  0  0
 25 67  1  0  0  0  0
 25138  1  0  0  0  0
 25139  1  0  0  0  0
 26 67  1  0  0  0  0
 26140  1  0  0  0  0
 26141  1  0  0  0  0
 27 70  1  0  0  0  0
 27142  1  0  0  0  0
 27143  1  0  0  0  0
 28 70  1  0  0  0  0
 28144  1  0  0  0  0
 28145  1  0  0  0  0
 29 72  1  0  0  0  0
 29146  1  0  0  0  0
 29147  1  0  0  0  0
 30 72  1  0  0  0  0
 30148  1  0  0  0  0
 30149  1  0  0  0  0
 31 77  1  0  0  0  0
 31150  1  0  0  0  0
 31151  1  0  0  0  0
 32 77  1  0  0  0  0
 32152  1  0  0  0  0
 32153  1  0  0  0  0
 33 35  1  0  0  0  0
 33 38  1  0  0  0  0
 33 78  1  0  0  0  0
 34 37  1  0  0  0  0
 34 43  1  0  0  0  0
 34 79  1  0  0  0  0
 35 40  1  0  0  0  0
 35 80  1  0  0  0  0
 35 81  1  0  0  0  0
 36 39  1  0  0  0  0
 36 41  1  0  0  0  0
 36 82  1  0  0  0  0
 37 42  1  0  0  0  0
 37 83  1  0  0  0  0
 37 84  1  0  0  0  0
 39 44  1  0  0  0  0
 39 85  1  0  0  0  0
 39 86  1  0  0  0  0
 40 46  1  0  0  0  0
 40 89  1  0  0  0  0
 40 90  1  0  0  0  0
 42 50  1  0  0  0  0
 42 91  1  0  0  0  0
 42 92  1  0  0  0  0
 44 51  1  0  0  0  0
 44 93  1  0  0  0  0
 44 94  1  0  0  0  0
 45 47  1  0  0  0  0
 45 54  1  0  0  0  0
 45 96  1  0  0  0  0
 46 98  1  0  0  0  0
 46 99  1  0  0  0  0
 47 52  1  0  0  0  0
 47100  1  0  0  0  0
 47101  1  0  0  0  0
 48 49  1  0  0  0  0
 48 53  1  0  0  0  0
 48102  1  0  0  0  0
 50103  1  0  0  0  0
 50104  1  0  0  0  0
 51105  1  0  0  0  0
 51106  1  0  0  0  0
 52 56  1  0  0  0  0
 52107  1  0  0  0  0
 52108  1  0  0  0  0
 53110  1  0  0  0  0
 53111  1  0  0  0  0
 55 57  1  0  0  0  0
 55 63  1  0  0  0  0
 55112  1  0  0  0  0
 56113  1  0  0  0  0
 56114  1  0  0  0  0
 58 61  1  0  0  0  0
 58 66  1  0  0  0  0
 58115  1  0  0  0  0
 59 60  1  0  0  0  0
 59 65  2  0  0  0  0
 60 62  1  0  0  0  0
 60 69  2  0  0  0  0
 62 64  1  0  0  0  0
 62 71  2  0  0  0  0
 63118  1  0  0  0  0
 63119  1  0  0  0  0
 63120  1  0  0  0  0
 64 68  2  0  0  0  0
 65 68  1  0  0  0  0
 65121  1  0  0  0  0
 66122  1  0  0  0  0
 66123  1  0  0  0  0
 66124  1  0  0  0  0
 68125  1  0  0  0  0
 69 73  1  0  0  0  0
 69127  1  0  0  0  0
 71 74  1  0  0  0  0
 71129  1  0  0  0  0
 73 74  2  0  0  0  0
 73130  1  0  0  0  0
 74131  1  0  0  0  0
 75132  1  0  0  0  0
 75133  1  0  0  0  0
 75134  1  0  0  0  0
 76135  1  0  0  0  0
 76136  1  0  0  0  0
 76137  1  0  0  0  0
M  END
> <PUBCHEM_COMPOUND_CID>
44378581

> <PUBCHEM_COMPOUND_CANONICALIZED>
1

> <PUBCHEM_CACTVS_COMPLEXITY>
2200

> <PUBCHEM_CACTVS_HBOND_ACCEPTOR>
17

> <PUBCHEM_CACTVS_HBOND_DONOR>
17

> <PUBCHEM_CACTVS_ROTATABLE_BOND>
34

> <PUBCHEM_CACTVS_SUBSKEYS>
AAADcfB//ABAAAAAAAAAAAAAAAAAAAAAAAAwYAAAAAAAAADBUAAAHgQQSAAADCjh2AYzycPAAgKoAiXSfHDCABEhAgAIiJmIZIgKcDbAkbGUYAhmtgDYyAeYkYAOgAQAwAAWAAAACAGAACwAAAAAAAAAAA==

> <PUBCHEM_IUPAC_OPENEYE_NAME>
(2S)-2-[[(2S)-2-[[(2S)-2-[[(2S)-2-[[(2S)-2-[[(2S)-2-[[(2S)-2-[[4-(dimethylamino)-1-naphthyl]sulfonylamino]propanoyl]amino]propanoyl]amino]-3-hydroxy-propanoyl]amino]-5-guanidino-pentanoyl]amino]-5-guanidino-pentanoyl]amino]-5-guanidino-pentanoyl]amino]-5-guanidino-pentanoic acid

> <PUBCHEM_IUPAC_CAS_NAME>
(2S)-5-(diaminomethylideneamino)-2-[[(2S)-5-(diaminomethylideneamino)-2-[[(2S)-5-(diaminomethylideneamino)-2-[[(2S)-5-(diaminomethylideneamino)-2-[[(2S)-2-[[(2S)-2-[[(2S)-2-[[4-(dimethylamino)-1-naphthalenyl]sulfonylamino]-1-oxopropyl]amino]-1-oxopropyl]amino]-3-hydroxy-1-oxopropyl]amino]-1-oxopentyl]amino]-1-oxopentyl]amino]-1-oxopentyl]amino]pentanoic acid

> <PUBCHEM_IUPAC_NAME_MARKUP>
(2<I>S</I>)-5-(diaminomethylideneamino)-2-[[(2<I>S</I>)-5-(diaminomethylideneamino)-2-[[(2<I>S</I>)-5-(diaminomethylideneamino)-2-[[(2<I>S</I>)-5-(diaminomethylideneamino)-2-[[(2<I>S</I>)-2-[[(2<I>S</I>)-2-[[(2<I>S</I>)-2-[[4-(dimethylamino)naphthalen-1-yl]sulfonylamino]propanoyl]amino]propanoyl]amino]-3-hydroxypropanoyl]amino]pentanoyl]amino]pentanoyl]amino]pentanoyl]amino]pentanoic acid

> <PUBCHEM_IUPAC_NAME>
(2S)-5-(diaminomethylideneamino)-2-[[(2S)-5-(diaminomethylideneamino)-2-[[(2S)-5-(diaminomethylideneamino)-2-[[(2S)-5-(diaminomethylideneamino)-2-[[(2S)-2-[[(2S)-2-[[(2S)-2-[[4-(dimethylamino)naphthalen-1-yl]sulfonylamino]propanoyl]amino]propanoyl]amino]-3-hydroxypropanoyl]amino]pentanoyl]amino]pentanoyl]amino]pentanoyl]amino]pentanoic acid

> <PUBCHEM_IUPAC_SYSTEMATIC_NAME>
(2S)-5-[bis(azanyl)methylideneamino]-2-[[(2S)-5-[bis(azanyl)methylideneamino]-2-[[(2S)-5-[bis(azanyl)methylideneamino]-2-[[(2S)-5-[bis(azanyl)methylideneamino]-2-[[(2S)-2-[[(2S)-2-[[(2S)-2-[[4-(dimethylamino)naphthalen-1-yl]sulfonylamino]propanoyl]amino]propanoyl]amino]-3-oxidanyl-propanoyl]amino]pentanoyl]amino]pentanoyl]amino]pentanoyl]amino]pentanoic acid

> <PUBCHEM_IUPAC_TRADITIONAL_NAME>
(2S)-2-[[(2S)-2-[[(2S)-2-[[(2S)-2-[[(2S)-2-[[(2S)-2-[[(2S)-2-[[4-(dimethylamino)-1-naphthyl]sulfonylamino]propanoyl]amino]propanoyl]amino]-3-hydroxy-propanoyl]amino]-5-guanidino-pentanoyl]amino]-5-guanidino-pentanoyl]amino]-5-guanidino-pentanoyl]amino]-5-guanidino-valeric acid

> <PUBCHEM_IUPAC_INCHI>
InChI=1S/C45H76N20O11S/c1-24(58-36(68)25(2)64-77(75,76)34-18-17-33(65(3)4)26-11-5-6-12-27(26)34)35(67)63-32(23-66)40(72)61-29(14-8-20-55-43(48)49)38(70)59-28(13-7-19-54-42(46)47)37(69)60-30(15-9-21-56-44(50)51)39(71)62-31(41(73)74)16-10-22-57-45(52)53/h5-6,11-12,17-18,24-25,28-32,64,66H,7-10,13-16,19-23H2,1-4H3,(H,58,68)(H,59,70)(H,60,69)(H,61,72)(H,62,71)(H,63,67)(H,73,74)(H4,46,47,54)(H4,48,49,55)(H4,50,51,56)(H4,52,53,57)/t24-,25-,28-,29-,30-,31-,32-/m0/s1

> <PUBCHEM_IUPAC_INCHIKEY>
WWFPNGLDVJEFCF-WUCONBCXSA-N

> <PUBCHEM_XLOGP3_AA>
-5.1

> <PUBCHEM_EXACT_MASS>
1104.57231449

> <PUBCHEM_MOLECULAR_FORMULA>
C45H76N20O11S

> <PUBCHEM_MOLECULAR_WEIGHT>
1105.3

> <PUBCHEM_SMILES>
C[C@@H](C(=O)N[C@@H](CO)C(=O)N[C@@H](CCCN=C(N)N)C(=O)N[C@@H](CCCN=C(N)N)C(=O)N[C@@H](CCCN=C(N)N)C(=O)N[C@@H](CCCN=C(N)N)C(=O)O)NC(=O)[C@H](C)NS(=O)(=O)C1=CC=C(C2=CC=CC=C21)N(C)C

> <PUBCHEM_OPENEYE_CAN_SMILES>
CC(C(=O)NC(CO)C(=O)NC(CCCN=C(N)N)C(=O)NC(CCCN=C(N)N)C(=O)NC(CCCN=C(N)N)C(=O)NC(CCCN=C(N)N)C(=O)O)NC(=O)C(C)NS(=O)(=O)C1=CC=C(C2=CC=CC=C21)N(C)C

> <PUBCHEM_OPENEYE_ISO_SMILES>
C[C@@H](C(=O)N[C@@H](CO)C(=O)N[C@@H](CCCN=C(N)N)C(=O)N[C@@H](CCCN=C(N)N)C(=O)N[C@@H](CCCN=C(N)N)C(=O)N[C@@H](CCCN=C(N)N)C(=O)O)NC(=O)[C@H](C)NS(=O)(=O)C1=CC=C(C2=CC=CC=C21)N(C)C

> <PUBCHEM_CACTVS_TPSA>
548

> <PUBCHEM_MONOISOTOPIC_WEIGHT>
1104.57231449

> <PUBCHEM_TOTAL_CHARGE>
0

> <PUBCHEM_HEAVY_ATOM_COUNT>
77

> <PUBCHEM_ATOM_DEF_STEREO_COUNT>
7

> <PUBCHEM_ATOM_UDEF_STEREO_COUNT>
0

> <PUBCHEM_BOND_DEF_STEREO_COUNT>
0

> <PUBCHEM_BOND_UDEF_STEREO_COUNT>
0

> <PUBCHEM_ISOTOPIC_ATOM_COUNT>
0

> <PUBCHEM_COMPONENT_COUNT>
1

> <PUBCHEM_CACTVS_TAUTO_COUNT>
-1

> <PUBCHEM_COORDINATE_TYPE>
1
5
255

> <PUBCHEM_BONDANNOTATIONS>
33  13  6
34  14  5
36  15  5
45  16  6
48  17  6
55  21  5
58  22  6
59  60  8
59  65  8
60  62  8
60  69  8
62  64  8
62  71  8
64  68  8
65  68  8
69  73  8
71  74  8
73  74  8

$$$$
