44370463
  -OEChem-03202505412D

 65 71  0     1  0  0  0  0  0999 V2000
    2.9320   -3.6912    0.0000 Br  0  0  0  0  0  0  0  0  0  0  0  0
    5.2927    0.2365    0.0000 O   0  0  0  0  0  0  0  0  0  0  0  0
    5.2462   -2.4088    0.0000 O   0  0  0  0  0  0  0  0  0  0  0  0
    2.6678   -0.0953    0.0000 O   0  0  0  0  0  0  0  0  0  0  0  0
    3.2892   -1.9964    0.0000 O   0  0  0  0  0  0  0  0  0  0  0  0
    3.0250    1.5995    0.0000 O   0  0  0  0  0  0  0  0  0  0  0  0
   10.3078   -1.5084    0.0000 O   0  0  0  0  0  0  0  0  0  0  0  0
   10.3078    2.0021    0.0000 O   0  0  0  0  0  0  0  0  0  0  0  0
    4.8890   -4.1036    0.0000 O   0  0  0  0  0  0  0  0  0  0  0  0
    6.5819   -0.9202    0.0000 N   0  0  0  0  0  0  0  0  0  0  0  0
    6.5819    1.4140    0.0000 N   0  0  0  0  0  0  0  0  0  0  0  0
   10.5808    0.2469    0.0000 N   0  0  0  0  0  0  0  0  0  0  0  0
    5.6034   -0.7140    0.0000 C   0  0  3  0  0  0  0  0  0  0  0  0
    4.9355   -1.4583    0.0000 C   0  0  3  0  0  0  0  0  0  0  0  0
    3.9570   -1.2521    0.0000 C   0  0  3  0  0  0  0  0  0  0  0  0
    3.6464   -0.3015    0.0000 C   0  0  3  0  0  0  0  0  0  0  0  0
    4.3142    0.4428    0.0000 C   0  0  3  0  0  0  0  0  0  0  0  0
    7.3189   -0.2531    0.0000 C   0  0  0  0  0  0  0  0  0  0  0  0
    8.1849   -0.7531    0.0000 C   0  0  0  0  0  0  0  0  0  0  0  0
    6.9870   -1.8280    0.0000 C   0  0  0  0  0  0  0  0  0  0  0  0
    7.3189    0.7469    0.0000 C   0  0  0  0  0  0  0  0  0  0  0  0
    7.9757   -1.7249    0.0000 C   0  0  0  0  0  0  0  0  0  0  0  0
    8.1849    1.2469    0.0000 C   0  0  0  0  0  0  0  0  0  0  0  0
    9.0509   -0.2531    0.0000 C   0  0  0  0  0  0  0  0  0  0  0  0
    9.0509    0.7469    0.0000 C   0  0  0  0  0  0  0  0  0  0  0  0
    4.0035    1.3933    0.0000 C   0  0  0  0  0  0  0  0  0  0  0  0
    7.9757    2.2187    0.0000 C   0  0  0  0  0  0  0  0  0  0  0  0
    6.5505   -2.7669    0.0000 C   0  0  0  0  0  0  0  0  0  0  0  0
    6.9870    2.3218    0.0000 C   0  0  0  0  0  0  0  0  0  0  0  0
    8.5965   -2.5537    0.0000 C   0  0  0  0  0  0  0  0  0  0  0  0
    9.9972   -0.5578    0.0000 C   0  0  0  0  0  0  0  0  0  0  0  0
    9.9972    1.0516    0.0000 C   0  0  0  0  0  0  0  0  0  0  0  0
    7.1519   -3.6098    0.0000 C   0  0  0  0  0  0  0  0  0  0  0  0
    8.1818   -3.5025    0.0000 C   0  0  0  0  0  0  0  0  0  0  0  0
    8.5965    3.0475    0.0000 C   0  0  0  0  0  0  0  0  0  0  0  0
    4.5783   -3.1531    0.0000 C   0  0  0  0  0  0  0  0  0  0  0  0
    2.0000   -0.8396    0.0000 C   0  0  0  0  0  0  0  0  0  0  0  0
    6.5505    3.2607    0.0000 C   0  0  0  0  0  0  0  0  0  0  0  0
    8.1818    3.9963    0.0000 C   0  0  0  0  0  0  0  0  0  0  0  0
    7.1519    4.1036    0.0000 C   0  0  0  0  0  0  0  0  0  0  0  0
    3.5998   -2.9469    0.0000 C   0  0  0  0  0  0  0  0  0  0  0  0
    6.0174   -0.2525    0.0000 H   0  0  0  0  0  0  0  0  0  0  0  0
    4.5214   -1.9197    0.0000 H   0  0  0  0  0  0  0  0  0  0  0  0
    3.3503   -1.1242    0.0000 H   0  0  0  0  0  0  0  0  0  0  0  0
    3.2323   -0.7630    0.0000 H   0  0  0  0  0  0  0  0  0  0  0  0
    4.7283    0.9042    0.0000 H   0  0  0  0  0  0  0  0  0  0  0  0
    4.6174    1.4806    0.0000 H   0  0  0  0  0  0  0  0  0  0  0  0
    4.0241    2.0129    0.0000 H   0  0  0  0  0  0  0  0  0  0  0  0
    5.9752    1.2861    0.0000 H   0  0  0  0  0  0  0  0  0  0  0  0
    5.9331   -2.8241    0.0000 H   0  0  0  0  0  0  0  0  0  0  0  0
    2.6825   -1.8685    0.0000 H   0  0  0  0  0  0  0  0  0  0  0  0
    9.2123   -2.4823    0.0000 H   0  0  0  0  0  0  0  0  0  0  0  0
   11.2008    0.2469    0.0000 H   0  0  0  0  0  0  0  0  0  0  0  0
    6.8970   -4.1750    0.0000 H   0  0  0  0  0  0  0  0  0  0  0  0
    8.5477   -4.0030    0.0000 H   0  0  0  0  0  0  0  0  0  0  0  0
    9.2123    2.9761    0.0000 H   0  0  0  0  0  0  0  0  0  0  0  0
    1.5385   -0.4256    0.0000 H   0  0  0  0  0  0  0  0  0  0  0  0
    1.5859   -1.3011    0.0000 H   0  0  0  0  0  0  0  0  0  0  0  0
    2.4615   -1.2537    0.0000 H   0  0  0  0  0  0  0  0  0  0  0  0
    5.9331    3.3179    0.0000 H   0  0  0  0  0  0  0  0  0  0  0  0
    2.8324    2.1888    0.0000 H   0  0  0  0  0  0  0  0  0  0  0  0
    8.5477    4.4968    0.0000 H   0  0  0  0  0  0  0  0  0  0  0  0
    6.8970    4.6688    0.0000 H   0  0  0  0  0  0  0  0  0  0  0  0
    3.8311   -2.3716    0.0000 H   0  0  0  0  0  0  0  0  0  0  0  0
    3.0735   -2.6192    0.0000 H   0  0  0  0  0  0  0  0  0  0  0  0
  1 41  1  0  0  0  0
  2 13  1  0  0  0  0
  2 17  1  0  0  0  0
  3 14  1  0  0  0  0
  3 36  1  0  0  0  0
  4 16  1  0  0  0  0
  4 37  1  0  0  0  0
  5 15  1  0  0  0  0
  5 51  1  0  0  0  0
  6 26  1  0  0  0  0
  6 61  1  0  0  0  0
  7 31  2  0  0  0  0
  8 32  2  0  0  0  0
  9 36  2  0  0  0  0
 10 13  1  0  0  0  0
 10 18  1  0  0  0  0
 10 20  1  0  0  0  0
 11 21  1  0  0  0  0
 11 29  1  0  0  0  0
 11 49  1  0  0  0  0
 12 31  1  0  0  0  0
 12 32  1  0  0  0  0
 12 53  1  0  0  0  0
 13 14  1  0  0  0  0
 13 42  1  0  0  0  0
 14 15  1  0  0  0  0
 14 43  1  0  0  0  0
 15 16  1  0  0  0  0
 15 44  1  0  0  0  0
 16 17  1  0  0  0  0
 16 45  1  0  0  0  0
 17 26  1  0  0  0  0
 17 46  1  0  0  0  0
 18 19  1  0  0  0  0
 18 21  2  0  0  0  0
 19 22  1  0  0  0  0
 19 24  2  0  0  0  0
 20 22  1  0  0  0  0
 20 28  2  0  0  0  0
 21 23  1  0  0  0  0
 22 30  2  0  0  0  0
 23 25  2  0  0  0  0
 23 27  1  0  0  0  0
 24 25  1  0  0  0  0
 24 31  1  0  0  0  0
 25 32  1  0  0  0  0
 26 47  1  0  0  0  0
 26 48  1  0  0  0  0
 27 29  1  0  0  0  0
 27 35  2  0  0  0  0
 28 33  1  0  0  0  0
 28 50  1  0  0  0  0
 29 38  2  0  0  0  0
 30 34  1  0  0  0  0
 30 52  1  0  0  0  0
 33 34  2  0  0  0  0
 33 54  1  0  0  0  0
 34 55  1  0  0  0  0
 35 39  1  0  0  0  0
 35 56  1  0  0  0  0
 36 41  1  0  0  0  0
 37 57  1  0  0  0  0
 37 58  1  0  0  0  0
 37 59  1  0  0  0  0
 38 40  1  0  0  0  0
 38 60  1  0  0  0  0
 39 40  2  0  0  0  0
 39 62  1  0  0  0  0
 40 63  1  0  0  0  0
 41 64  1  0  0  0  0
 41 65  1  0  0  0  0
M  END
> <PUBCHEM_COMPOUND_CID>
44370463

> <PUBCHEM_COMPOUND_CANONICALIZED>
1

> <PUBCHEM_CACTVS_COMPLEXITY>
1070

> <PUBCHEM_CACTVS_HBOND_ACCEPTOR>
8

> <PUBCHEM_CACTVS_HBOND_DONOR>
4

> <PUBCHEM_CACTVS_ROTATABLE_BOND>
6

> <PUBCHEM_CACTVS_SUBSKEYS>
AAADceB7PAAAEAAAAAAAAAAAAAAAAWLFgAA0YMEAAAAAAFgB/gAAHgBQCAABTBzhngYyyPPNlgCoAyXyXACCgCQlEiAI2SE4dNgrcPLAlZGfYQhnlCDbyQf9+c6eyAACQAASACCQAASAACQAQAAAAAAAAA==

> <PUBCHEM_IUPAC_OPENEYE_NAME>
[2-(12,14-dioxo-3,13,23-triazahexacyclo[14.7.0.02,10.04,9.011,15.017,22]tricosa-1,4,6,8,10,15,17,19,21-nonaen-3-yl)-4-hydroxy-6-(hydroxymethyl)-5-methoxy-tetrahydropyran-3-yl] 2-bromoacetate

> <PUBCHEM_IUPAC_CAS_NAME>
2-bromoacetic acid [2-(12,14-dioxo-3,13,23-triazahexacyclo[14.7.0.02,10.04,9.011,15.017,22]tricosa-1,4,6,8,10,15,17,19,21-nonaen-3-yl)-4-hydroxy-6-(hydroxymethyl)-5-methoxy-3-oxanyl] ester

> <PUBCHEM_IUPAC_NAME_MARKUP>
[2-(12,14-dioxo-3,13,23-triazahexacyclo[14.7.0.0<SUP>2,10</SUP>.0<SUP>4,9</SUP>.0<SUP>11,15</SUP>.0<SUP>17,22</SUP>]tricosa-1,4,6,8,10,15,17,19,21-nonaen-3-yl)-4-hydroxy-6-(hydroxymethyl)-5-methoxyoxan-3-yl] 2-bromoacetate

> <PUBCHEM_IUPAC_NAME>
[2-(12,14-dioxo-3,13,23-triazahexacyclo[14.7.0.02,10.04,9.011,15.017,22]tricosa-1,4,6,8,10,15,17,19,21-nonaen-3-yl)-4-hydroxy-6-(hydroxymethyl)-5-methoxyoxan-3-yl] 2-bromoacetate

> <PUBCHEM_IUPAC_SYSTEMATIC_NAME>
[2-[12,14-bis(oxidanylidene)-3,13,23-triazahexacyclo[14.7.0.02,10.04,9.011,15.017,22]tricosa-1,4,6,8,10,15,17,19,21-nonaen-3-yl]-6-(hydroxymethyl)-5-methoxy-4-oxidanyl-oxan-3-yl] 2-bromanylethanoate

> <PUBCHEM_IUPAC_TRADITIONAL_NAME>
2-bromoacetic acid [2-(12,14-diketo-3,13,23-triazahexacyclo[14.7.0.02,10.04,9.011,15.017,22]tricosa-1,4,6,8,10,15,17,19,21-nonaen-3-yl)-4-hydroxy-5-methoxy-6-methylol-tetrahydropyran-3-yl] ester

> <PUBCHEM_IUPAC_INCHI>
InChI=1S/C29H24BrN3O8/c1-39-25-16(11-34)40-29(26(24(25)36)41-17(35)10-30)33-15-9-5-3-7-13(15)19-21-20(27(37)32-28(21)38)18-12-6-2-4-8-14(12)31-22(18)23(19)33/h2-9,16,24-26,29,31,34,36H,10-11H2,1H3,(H,32,37,38)

> <PUBCHEM_IUPAC_INCHIKEY>
XAXUMCRVNQGORJ-UHFFFAOYSA-N

> <PUBCHEM_XLOGP3_AA>
2.7

> <PUBCHEM_EXACT_MASS>
621.07468

> <PUBCHEM_MOLECULAR_FORMULA>
C29H24BrN3O8

> <PUBCHEM_MOLECULAR_WEIGHT>
622.4

> <PUBCHEM_SMILES>
COC1C(OC(C(C1O)OC(=O)CBr)N2C3=CC=CC=C3C4=C5C(=C6C7=CC=CC=C7NC6=C42)C(=O)NC5=O)CO

> <PUBCHEM_OPENEYE_CAN_SMILES>
COC1C(OC(C(C1O)OC(=O)CBr)N2C3=CC=CC=C3C4=C5C(=C6C7=CC=CC=C7NC6=C42)C(=O)NC5=O)CO

> <PUBCHEM_OPENEYE_ISO_SMILES>
COC1C(OC(C(C1O)OC(=O)CBr)N2C3=CC=CC=C3C4=C5C(=C6C7=CC=CC=C7NC6=C42)C(=O)NC5=O)CO

> <PUBCHEM_CACTVS_TPSA>
152

> <PUBCHEM_MONOISOTOPIC_WEIGHT>
621.07468

> <PUBCHEM_TOTAL_CHARGE>
0

> <PUBCHEM_HEAVY_ATOM_COUNT>
41

> <PUBCHEM_ATOM_DEF_STEREO_COUNT>
0

> <PUBCHEM_ATOM_UDEF_STEREO_COUNT>
5

> <PUBCHEM_BOND_DEF_STEREO_COUNT>
0

> <PUBCHEM_BOND_UDEF_STEREO_COUNT>
0

> <PUBCHEM_ISOTOPIC_ATOM_COUNT>
0

> <PUBCHEM_COMPONENT_COUNT>
1

> <PUBCHEM_CACTVS_TAUTO_COUNT>
-1

> <PUBCHEM_COORDINATE_TYPE>
1
5
255

> <PUBCHEM_BONDANNOTATIONS>
13  10  3
10  18  8
10  20  8
11  21  8
11  29  8
17  26  3
18  19  8
18  21  8
19  22  8
19  24  8
20  22  8
20  28  8
21  23  8
22  30  8
23  25  8
23  27  8
24  25  8
27  29  8
27  35  8
28  33  8
29  38  8
14  3  3
30  34  8
33  34  8
35  39  8
38  40  8
39  40  8
16  4  3
15  5  3

$$$$
