49830849
  -OEChem-03202502282D

 61 65  0     0  0  0  0  0  0999 V2000
    6.1831    2.8820    0.0000 O   0  0  0  0  0  0  0  0  0  0  0  0
    6.9506   -1.0588    0.0000 O   0  0  0  0  0  0  0  0  0  0  0  0
    6.4126    0.5875    0.0000 O   0  0  0  0  0  0  0  0  0  0  0  0
    4.9511   -1.6479    0.0000 N   0  0  0  0  0  0  0  0  0  0  0  0
    3.6026   -4.9650    0.0000 N   0  0  0  0  0  0  0  0  0  0  0  0
    4.5531   -4.6544    0.0000 N   0  0  0  0  0  0  0  0  0  0  0  0
    4.4511   -0.1180    0.0000 C   0  0  0  0  0  0  0  0  0  0  0  0
    3.6464   -0.7017    0.0000 C   0  0  0  0  0  0  0  0  0  0  0  0
    3.9570   -1.6522    0.0000 C   0  0  0  0  0  0  0  0  0  0  0  0
    4.4511    0.8820    0.0000 C   0  0  0  0  0  0  0  0  0  0  0  0
    3.2892   -2.3965    0.0000 C   0  0  0  0  0  0  0  0  0  0  0  0
    5.2558   -0.7017    0.0000 C   0  0  0  0  0  0  0  0  0  0  0  0
    3.5998   -3.3470    0.0000 C   0  0  0  0  0  0  0  0  0  0  0  0
    5.3171    1.3820    0.0000 C   0  0  0  0  0  0  0  0  0  0  0  0
    2.6678   -0.4954    0.0000 C   0  0  0  0  0  0  0  0  0  0  0  0
    2.3107   -2.1903    0.0000 C   0  0  0  0  0  0  0  0  0  0  0  0
    3.0135   -4.1570    0.0000 C   0  0  0  0  0  0  0  0  0  0  0  0
    4.5514   -3.6544    0.0000 C   0  0  0  0  0  0  0  0  0  0  0  0
    2.0000   -1.2397    0.0000 C   0  0  0  0  0  0  0  0  0  0  0  0
    5.3171    2.3820    0.0000 C   0  0  0  0  0  0  0  0  0  0  0  0
    6.2063   -0.3910    0.0000 C   0  0  0  0  0  0  0  0  0  0  0  0
    2.0135   -4.1588    0.0000 C   0  0  0  0  0  0  0  0  0  0  0  0
    5.3594   -3.0652    0.0000 C   0  0  0  0  0  0  0  0  0  0  0  0
    3.2953   -5.9166    0.0000 C   0  0  0  0  0  0  0  0  0  0  0  0
    6.1831    3.8820    0.0000 C   0  0  0  0  0  0  0  0  0  0  0  0
    7.0492    4.3820    0.0000 C   0  0  0  0  0  0  0  0  0  0  0  0
    7.0492    5.3820    0.0000 C   0  0  0  0  0  0  0  0  0  0  0  0
    5.3171    4.3820    0.0000 C   0  0  0  0  0  0  0  0  0  0  0  0
    7.9431    3.8473    0.0000 C   0  0  0  0  0  0  0  0  0  0  0  0
    6.1831    5.8820    0.0000 C   0  0  0  0  0  0  0  0  0  0  0  0
    5.3171    5.3820    0.0000 C   0  0  0  0  0  0  0  0  0  0  0  0
    7.9431    5.9166    0.0000 C   0  0  0  0  0  0  0  0  0  0  0  0
    8.8492    4.3611    0.0000 C   0  0  0  0  0  0  0  0  0  0  0  0
    8.8492    5.4028    0.0000 C   0  0  0  0  0  0  0  0  0  0  0  0
    4.2390    1.4646    0.0000 H   0  0  0  0  0  0  0  0  0  0  0  0
    3.8405    0.7743    0.0000 H   0  0  0  0  0  0  0  0  0  0  0  0
    5.3172   -2.1482    0.0000 H   0  0  0  0  0  0  0  0  0  0  0  0
    5.5292    0.7993    0.0000 H   0  0  0  0  0  0  0  0  0  0  0  0
    5.9277    1.4896    0.0000 H   0  0  0  0  0  0  0  0  0  0  0  0
    2.4752    0.0939    0.0000 H   0  0  0  0  0  0  0  0  0  0  0  0
    1.8966   -2.6517    0.0000 H   0  0  0  0  0  0  0  0  0  0  0  0
    1.3933   -1.1119    0.0000 H   0  0  0  0  0  0  0  0  0  0  0  0
    5.1050    2.9646    0.0000 H   0  0  0  0  0  0  0  0  0  0  0  0
    4.7065    2.2743    0.0000 H   0  0  0  0  0  0  0  0  0  0  0  0
    2.0124   -3.5388    0.0000 H   0  0  0  0  0  0  0  0  0  0  0  0
    1.3934   -4.1598    0.0000 H   0  0  0  0  0  0  0  0  0  0  0  0
    2.0145   -4.7788    0.0000 H   0  0  0  0  0  0  0  0  0  0  0  0
    5.7247   -3.5661    0.0000 H   0  0  0  0  0  0  0  0  0  0  0  0
    5.8604   -2.6999    0.0000 H   0  0  0  0  0  0  0  0  0  0  0  0
    4.9941   -2.5642    0.0000 H   0  0  0  0  0  0  0  0  0  0  0  0
    2.7053   -5.7260    0.0000 H   0  0  0  0  0  0  0  0  0  0  0  0
    3.1047   -6.5066    0.0000 H   0  0  0  0  0  0  0  0  0  0  0  0
    3.8852   -6.1072    0.0000 H   0  0  0  0  0  0  0  0  0  0  0  0
    7.5400   -0.8662    0.0000 H   0  0  0  0  0  0  0  0  0  0  0  0
    4.7802    4.0720    0.0000 H   0  0  0  0  0  0  0  0  0  0  0  0
    7.9359    3.2273    0.0000 H   0  0  0  0  0  0  0  0  0  0  0  0
    6.1831    6.5020    0.0000 H   0  0  0  0  0  0  0  0  0  0  0  0
    4.7802    5.6920    0.0000 H   0  0  0  0  0  0  0  0  0  0  0  0
    7.9359    6.5366    0.0000 H   0  0  0  0  0  0  0  0  0  0  0  0
    9.3849    4.0491    0.0000 H   0  0  0  0  0  0  0  0  0  0  0  0
    9.3849    5.7148    0.0000 H   0  0  0  0  0  0  0  0  0  0  0  0
  1 20  1  0  0  0  0
  1 25  1  0  0  0  0
  2 21  1  0  0  0  0
  2 54  1  0  0  0  0
  3 21  2  0  0  0  0
  4  9  1  0  0  0  0
  4 12  1  0  0  0  0
  4 37  1  0  0  0  0
  5  6  1  0  0  0  0
  5 17  1  0  0  0  0
  5 24  1  0  0  0  0
  6 18  2  0  0  0  0
  7  8  1  0  0  0  0
  7 10  1  0  0  0  0
  7 12  2  0  0  0  0
  8  9  2  0  0  0  0
  8 15  1  0  0  0  0
  9 11  1  0  0  0  0
 10 14  1  0  0  0  0
 10 35  1  0  0  0  0
 10 36  1  0  0  0  0
 11 13  1  0  0  0  0
 11 16  2  0  0  0  0
 12 21  1  0  0  0  0
 13 17  2  0  0  0  0
 13 18  1  0  0  0  0
 14 20  1  0  0  0  0
 14 38  1  0  0  0  0
 14 39  1  0  0  0  0
 15 19  2  0  0  0  0
 15 40  1  0  0  0  0
 16 19  1  0  0  0  0
 16 41  1  0  0  0  0
 17 22  1  0  0  0  0
 18 23  1  0  0  0  0
 19 42  1  0  0  0  0
 20 43  1  0  0  0  0
 20 44  1  0  0  0  0
 22 45  1  0  0  0  0
 22 46  1  0  0  0  0
 22 47  1  0  0  0  0
 23 48  1  0  0  0  0
 23 49  1  0  0  0  0
 23 50  1  0  0  0  0
 24 51  1  0  0  0  0
 24 52  1  0  0  0  0
 24 53  1  0  0  0  0
 25 26  1  0  0  0  0
 25 28  2  0  0  0  0
 26 27  1  0  0  0  0
 26 29  2  0  0  0  0
 27 30  1  0  0  0  0
 27 32  2  0  0  0  0
 28 31  1  0  0  0  0
 28 55  1  0  0  0  0
 29 33  1  0  0  0  0
 29 56  1  0  0  0  0
 30 31  2  0  0  0  0
 30 57  1  0  0  0  0
 31 58  1  0  0  0  0
 32 34  1  0  0  0  0
 32 59  1  0  0  0  0
 33 34  2  0  0  0  0
 33 60  1  0  0  0  0
 34 61  1  0  0  0  0
M  END
> <PUBCHEM_COMPOUND_CID>
49830849

> <PUBCHEM_COMPOUND_CANONICALIZED>
1

> <PUBCHEM_CACTVS_COMPLEXITY>
704

> <PUBCHEM_CACTVS_HBOND_ACCEPTOR>
4

> <PUBCHEM_CACTVS_HBOND_DONOR>
2

> <PUBCHEM_CACTVS_ROTATABLE_BOND>
7

> <PUBCHEM_CACTVS_SUBSKEYS>
AAADceB7MAAAAAAAAAAAAAAAAAAAAWLAAAAwYMAAAAAAAFjB/AAAHgAYCAAADAyhngYyzvLJlgCqAyTyTASSjCAnoCAY2SG+TNgOJvLE9fuG/SjkyBHY+QeY2fOegAADAAAaAAAAAAYAADQAAAAAAAAAAA==

> <PUBCHEM_IUPAC_OPENEYE_NAME>
3-[3-(1-naphthyloxy)propyl]-7-(1,3,5-trimethylpyrazol-4-yl)-1H-indole-2-carboxylic acid

> <PUBCHEM_IUPAC_CAS_NAME>
3-[3-(1-naphthalenyloxy)propyl]-7-(1,3,5-trimethyl-4-pyrazolyl)-1H-indole-2-carboxylic acid

> <PUBCHEM_IUPAC_NAME_MARKUP>
3-(3-naphthalen-1-yloxypropyl)-7-(1,3,5-trimethylpyrazol-4-yl)-1<I>H</I>-indole-2-carboxylic acid

> <PUBCHEM_IUPAC_NAME>
3-(3-naphthalen-1-yloxypropyl)-7-(1,3,5-trimethylpyrazol-4-yl)-1H-indole-2-carboxylic acid

> <PUBCHEM_IUPAC_SYSTEMATIC_NAME>
3-(3-naphthalen-1-yloxypropyl)-7-(1,3,5-trimethylpyrazol-4-yl)-1H-indole-2-carboxylic acid

> <PUBCHEM_IUPAC_TRADITIONAL_NAME>
3-[3-(1-naphthoxy)propyl]-7-(1,3,5-trimethylpyrazol-4-yl)-1H-indole-2-carboxylic acid

> <PUBCHEM_IUPAC_INCHI>
InChI=1S/C28H27N3O3/c1-17-25(18(2)31(3)30-17)23-13-7-12-21-22(27(28(32)33)29-26(21)23)14-8-16-34-24-15-6-10-19-9-4-5-11-20(19)24/h4-7,9-13,15,29H,8,14,16H2,1-3H3,(H,32,33)

> <PUBCHEM_IUPAC_INCHIKEY>
YQKMXWUAKZDDLP-UHFFFAOYSA-N

> <PUBCHEM_XLOGP3_AA>
6.2

> <PUBCHEM_EXACT_MASS>
453.20524173

> <PUBCHEM_MOLECULAR_FORMULA>
C28H27N3O3

> <PUBCHEM_MOLECULAR_WEIGHT>
453.5

> <PUBCHEM_SMILES>
CC1=C(C(=NN1C)C)C2=CC=CC3=C2NC(=C3CCCOC4=CC=CC5=CC=CC=C54)C(=O)O

> <PUBCHEM_OPENEYE_CAN_SMILES>
CC1=C(C(=NN1C)C)C2=CC=CC3=C2NC(=C3CCCOC4=CC=CC5=CC=CC=C54)C(=O)O

> <PUBCHEM_OPENEYE_ISO_SMILES>
CC1=C(C(=NN1C)C)C2=CC=CC3=C2NC(=C3CCCOC4=CC=CC5=CC=CC=C54)C(=O)O

> <PUBCHEM_CACTVS_TPSA>
80.1

> <PUBCHEM_MONOISOTOPIC_WEIGHT>
453.20524173

> <PUBCHEM_TOTAL_CHARGE>
0

> <PUBCHEM_HEAVY_ATOM_COUNT>
34

> <PUBCHEM_ATOM_DEF_STEREO_COUNT>
0

> <PUBCHEM_ATOM_UDEF_STEREO_COUNT>
0

> <PUBCHEM_BOND_DEF_STEREO_COUNT>
0

> <PUBCHEM_BOND_UDEF_STEREO_COUNT>
0

> <PUBCHEM_ISOTOPIC_ATOM_COUNT>
0

> <PUBCHEM_COMPONENT_COUNT>
1

> <PUBCHEM_CACTVS_TAUTO_COUNT>
-1

> <PUBCHEM_COORDINATE_TYPE>
1
5
255

> <PUBCHEM_BONDANNOTATIONS>
11  16  8
13  17  8
13  18  8
15  19  8
16  19  8
25  26  8
25  28  8
26  27  8
26  29  8
27  30  8
27  32  8
28  31  8
29  33  8
30  31  8
32  34  8
33  34  8
4  12  8
4  9  8
5  17  8
5  6  8
6  18  8
7  12  8
7  8  8
8  15  8
8  9  8
9  11  8

$$$$
