9549184
  -OEChem-03202501212D

 85 91  0     0  0  0  0  0  0999 V2000
    7.8314   -8.3420    0.0000 O   0  0  0  0  0  0  0  0  0  0  0  0
    7.2566    2.4408    0.0000 O   0  0  0  0  0  0  0  0  0  0  0  0
    4.2746    4.4675    0.0000 O   0  0  0  0  0  0  0  0  0  0  0  0
    5.9209   -5.2842    0.0000 N   0  0  0  0  0  0  0  0  0  0  0  0
    4.6783   -1.4821    0.0000 N   0  0  0  0  0  0  0  0  0  0  0  0
    6.5422   -7.1852    0.0000 N   0  0  0  0  0  0  0  0  0  0  0  0
    5.2619   -0.6774    0.0000 N   0  0  0  0  0  0  0  0  0  0  0  0
    2.8660   -1.6774    0.0000 N   0  0  0  0  0  0  0  0  0  0  0  0
    2.0000   -0.1774    0.0000 N   0  0  0  0  0  0  0  0  0  0  0  0
    2.8660    1.3226    0.0000 N   0  0  0  0  0  0  0  0  0  0  0  0
    5.9209    3.9294    0.0000 N   0  0  0  0  0  0  0  0  0  0  0  0
    4.9801    6.4290    0.0000 N   0  0  0  0  0  0  0  0  0  0  0  0
    5.6103   -4.3337    0.0000 C   0  0  0  0  0  0  0  0  0  0  0  0
    4.9889   -2.4326    0.0000 C   0  0  0  0  0  0  0  0  0  0  0  0
    6.2781   -3.5894    0.0000 C   0  0  0  0  0  0  0  0  0  0  0  0
    4.6318   -4.1275    0.0000 C   0  0  0  0  0  0  0  0  0  0  0  0
    5.9674   -2.6389    0.0000 C   0  0  0  0  0  0  0  0  0  0  0  0
    4.3211   -3.1769    0.0000 C   0  0  0  0  0  0  0  0  0  0  0  0
    5.2531   -6.0285    0.0000 C   0  0  0  0  0  0  0  0  0  0  0  0
    6.8994   -5.4904    0.0000 C   0  0  0  0  0  0  0  0  0  0  0  0
    5.5637   -6.9790    0.0000 C   0  0  0  0  0  0  0  0  0  0  0  0
    7.2101   -6.4409    0.0000 C   0  0  0  0  0  0  0  0  0  0  0  0
    3.7320   -1.1774    0.0000 C   0  0  0  0  0  0  0  0  0  0  0  0
    3.7320   -0.1774    0.0000 C   0  0  0  0  0  0  0  0  0  0  0  0
    4.6783    0.1273    0.0000 C   0  0  0  0  0  0  0  0  0  0  0  0
    6.8529   -8.1358    0.0000 C   0  0  0  0  0  0  0  0  0  0  0  0
    2.8660    0.3226    0.0000 C   0  0  0  0  0  0  0  0  0  0  0  0
    4.9889    1.0779    0.0000 C   0  0  0  0  0  0  0  0  0  0  0  0
    6.1851   -8.8801    0.0000 C   0  0  0  0  0  0  0  0  0  0  0  0
    2.0000   -1.1774    0.0000 C   0  0  0  0  0  0  0  0  0  0  0  0
    5.9674    1.2841    0.0000 C   0  0  0  0  0  0  0  0  0  0  0  0
    4.3211    1.8222    0.0000 C   0  0  0  0  0  0  0  0  0  0  0  0
    6.2781    2.2346    0.0000 C   0  0  0  0  0  0  0  0  0  0  0  0
    4.6318    2.7727    0.0000 C   0  0  0  0  0  0  0  0  0  0  0  0
    5.6103    2.9789    0.0000 C   0  0  0  0  0  0  0  0  0  0  0  0
    5.2531    4.6737    0.0000 C   0  0  0  0  0  0  0  0  0  0  0  0
    5.5637    5.6242    0.0000 C   0  0  0  0  0  0  0  0  0  0  0  0
    7.9244    1.6965    0.0000 C   0  0  0  0  0  0  0  0  0  0  0  0
    5.5637    7.2337    0.0000 C   0  0  0  0  0  0  0  0  0  0  0  0
    6.5143    6.9230    0.0000 C   0  0  0  0  0  0  0  0  0  0  0  0
    6.5100    5.9290    0.0000 C   0  0  0  0  0  0  0  0  0  0  0  0
    3.9801    6.4290    0.0000 C   0  0  0  0  0  0  0  0  0  0  0  0
    5.3575    8.2122    0.0000 C   0  0  0  0  0  0  0  0  0  0  0  0
    7.2586    7.5909    0.0000 C   0  0  0  0  0  0  0  0  0  0  0  0
    6.1018    8.8801    0.0000 C   0  0  0  0  0  0  0  0  0  0  0  0
    7.0523    8.5694    0.0000 C   0  0  0  0  0  0  0  0  0  0  0  0
    6.2169   -4.4615    0.0000 H   0  0  0  0  0  0  0  0  0  0  0  0
    5.4030   -1.9712    0.0000 H   0  0  0  0  0  0  0  0  0  0  0  0
    6.6607   -4.0773    0.0000 H   0  0  0  0  0  0  0  0  0  0  0  0
    6.8250   -3.2974    0.0000 H   0  0  0  0  0  0  0  0  0  0  0  0
    4.0179   -4.2148    0.0000 H   0  0  0  0  0  0  0  0  0  0  0  0
    4.6112   -4.7471    0.0000 H   0  0  0  0  0  0  0  0  0  0  0  0
    6.5812   -2.5515    0.0000 H   0  0  0  0  0  0  0  0  0  0  0  0
    5.9880   -2.0192    0.0000 H   0  0  0  0  0  0  0  0  0  0  0  0
    3.9385   -2.6890    0.0000 H   0  0  0  0  0  0  0  0  0  0  0  0
    3.7742   -3.4690    0.0000 H   0  0  0  0  0  0  0  0  0  0  0  0
    4.8705   -5.5406    0.0000 H   0  0  0  0  0  0  0  0  0  0  0  0
    4.7062   -6.3205    0.0000 H   0  0  0  0  0  0  0  0  0  0  0  0
    7.5132   -5.4031    0.0000 H   0  0  0  0  0  0  0  0  0  0  0  0
    6.9200   -4.8708    0.0000 H   0  0  0  0  0  0  0  0  0  0  0  0
    4.9499   -7.0664    0.0000 H   0  0  0  0  0  0  0  0  0  0  0  0
    5.5432   -7.5987    0.0000 H   0  0  0  0  0  0  0  0  0  0  0  0
    7.5926   -6.9288    0.0000 H   0  0  0  0  0  0  0  0  0  0  0  0
    7.7570   -6.1489    0.0000 H   0  0  0  0  0  0  0  0  0  0  0  0
    5.7236   -8.4660    0.0000 H   0  0  0  0  0  0  0  0  0  0  0  0
    5.7710   -9.3415    0.0000 H   0  0  0  0  0  0  0  0  0  0  0  0
    6.6465   -9.2941    0.0000 H   0  0  0  0  0  0  0  0  0  0  0  0
    1.4631   -1.4874    0.0000 H   0  0  0  0  0  0  0  0  0  0  0  0
    6.3815    0.8226    0.0000 H   0  0  0  0  0  0  0  0  0  0  0  0
    3.7144    1.6943    0.0000 H   0  0  0  0  0  0  0  0  0  0  0  0
    2.3291    1.6326    0.0000 H   0  0  0  0  0  0  0  0  0  0  0  0
    3.4030    1.6326    0.0000 H   0  0  0  0  0  0  0  0  0  0  0  0
    4.2177    3.2342    0.0000 H   0  0  0  0  0  0  0  0  0  0  0  0
    6.5276    4.0573    0.0000 H   0  0  0  0  0  0  0  0  0  0  0  0
    7.4630    1.2825    0.0000 H   0  0  0  0  0  0  0  0  0  0  0  0
    8.3385    1.2351    0.0000 H   0  0  0  0  0  0  0  0  0  0  0  0
    8.3859    2.1106    0.0000 H   0  0  0  0  0  0  0  0  0  0  0  0
    7.0103    5.5628    0.0000 H   0  0  0  0  0  0  0  0  0  0  0  0
    3.9801    7.0490    0.0000 H   0  0  0  0  0  0  0  0  0  0  0  0
    3.3601    6.4290    0.0000 H   0  0  0  0  0  0  0  0  0  0  0  0
    3.9801    5.8090    0.0000 H   0  0  0  0  0  0  0  0  0  0  0  0
    4.7682    8.4048    0.0000 H   0  0  0  0  0  0  0  0  0  0  0  0
    7.8479    7.3983    0.0000 H   0  0  0  0  0  0  0  0  0  0  0  0
    5.9740    9.4867    0.0000 H   0  0  0  0  0  0  0  0  0  0  0  0
    7.5138    8.9835    0.0000 H   0  0  0  0  0  0  0  0  0  0  0  0
  1 26  2  0  0  0  0
  2 33  1  0  0  0  0
  2 38  1  0  0  0  0
  3 36  2  0  0  0  0
  4 13  1  0  0  0  0
  4 19  1  0  0  0  0
  4 20  1  0  0  0  0
  5  7  1  0  0  0  0
  5 14  1  0  0  0  0
  5 23  1  0  0  0  0
  6 21  1  0  0  0  0
  6 22  1  0  0  0  0
  6 26  1  0  0  0  0
  7 25  2  0  0  0  0
  8 23  2  0  0  0  0
  8 30  1  0  0  0  0
  9 27  1  0  0  0  0
  9 30  2  0  0  0  0
 10 27  1  0  0  0  0
 10 71  1  0  0  0  0
 10 72  1  0  0  0  0
 11 35  1  0  0  0  0
 11 36  1  0  0  0  0
 11 74  1  0  0  0  0
 12 37  1  0  0  0  0
 12 39  1  0  0  0  0
 12 42  1  0  0  0  0
 13 15  1  0  0  0  0
 13 16  1  0  0  0  0
 13 47  1  0  0  0  0
 14 17  1  0  0  0  0
 14 18  1  0  0  0  0
 14 48  1  0  0  0  0
 15 17  1  0  0  0  0
 15 49  1  0  0  0  0
 15 50  1  0  0  0  0
 16 18  1  0  0  0  0
 16 51  1  0  0  0  0
 16 52  1  0  0  0  0
 17 53  1  0  0  0  0
 17 54  1  0  0  0  0
 18 55  1  0  0  0  0
 18 56  1  0  0  0  0
 19 21  1  0  0  0  0
 19 57  1  0  0  0  0
 19 58  1  0  0  0  0
 20 22  1  0  0  0  0
 20 59  1  0  0  0  0
 20 60  1  0  0  0  0
 21 61  1  0  0  0  0
 21 62  1  0  0  0  0
 22 63  1  0  0  0  0
 22 64  1  0  0  0  0
 23 24  1  0  0  0  0
 24 25  1  0  0  0  0
 24 27  2  0  0  0  0
 25 28  1  0  0  0  0
 26 29  1  0  0  0  0
 28 31  2  0  0  0  0
 28 32  1  0  0  0  0
 29 65  1  0  0  0  0
 29 66  1  0  0  0  0
 29 67  1  0  0  0  0
 30 68  1  0  0  0  0
 31 33  1  0  0  0  0
 31 69  1  0  0  0  0
 32 34  2  0  0  0  0
 32 70  1  0  0  0  0
 33 35  2  0  0  0  0
 34 35  1  0  0  0  0
 34 73  1  0  0  0  0
 36 37  1  0  0  0  0
 37 41  2  0  0  0  0
 38 75  1  0  0  0  0
 38 76  1  0  0  0  0
 38 77  1  0  0  0  0
 39 40  1  0  0  0  0
 39 43  2  0  0  0  0
 40 41  1  0  0  0  0
 40 44  2  0  0  0  0
 41 78  1  0  0  0  0
 42 79  1  0  0  0  0
 42 80  1  0  0  0  0
 42 81  1  0  0  0  0
 43 45  1  0  0  0  0
 43 82  1  0  0  0  0
 44 46  1  0  0  0  0
 44 83  1  0  0  0  0
 45 46  2  0  0  0  0
 45 84  1  0  0  0  0
 46 85  1  0  0  0  0
M  END
> <PUBCHEM_COMPOUND_CID>
9549184

> <PUBCHEM_COMPOUND_CANONICALIZED>
1

> <PUBCHEM_CACTVS_COMPLEXITY>
1070

> <PUBCHEM_CACTVS_HBOND_ACCEPTOR>
8

> <PUBCHEM_CACTVS_HBOND_DONOR>
2

> <PUBCHEM_CACTVS_ROTATABLE_BOND>
6

> <PUBCHEM_CACTVS_SUBSKEYS>
AAADcfB/8AAAAAAAAAAAAAAAAAAAAWLAAAA8eMECAAAAAFgB/gAAHgAYAAAADCzBnwY39v/MFACqAydzdACSjCs3oqAd2CG/bNiObvLE/fuVtShs3hPY6ae4yfCeCAABAAACEAAQAQIAAAQgAAAAAAAAAA==

> <PUBCHEM_IUPAC_OPENEYE_NAME>
N-[4-[1-[4-(4-acetylpiperazin-1-yl)cyclohexyl]-4-amino-pyrazolo[3,4-d]pyrimidin-3-yl]-2-methoxy-phenyl]-1-methyl-indole-2-carboxamide

> <PUBCHEM_IUPAC_CAS_NAME>
N-[4-[1-[4-(4-acetyl-1-piperazinyl)cyclohexyl]-4-amino-3-pyrazolo[3,4-d]pyrimidinyl]-2-methoxyphenyl]-1-methyl-2-indolecarboxamide

> <PUBCHEM_IUPAC_NAME_MARKUP>
<I>N</I>-[4-[1-[4-(4-acetylpiperazin-1-yl)cyclohexyl]-4-aminopyrazolo[3,4-d]pyrimidin-3-yl]-2-methoxyphenyl]-1-methylindole-2-carboxamide

> <PUBCHEM_IUPAC_NAME>
N-[4-[1-[4-(4-acetylpiperazin-1-yl)cyclohexyl]-4-aminopyrazolo[3,4-d]pyrimidin-3-yl]-2-methoxyphenyl]-1-methylindole-2-carboxamide

> <PUBCHEM_IUPAC_SYSTEMATIC_NAME>
N-[4-[4-azanyl-1-[4-(4-ethanoylpiperazin-1-yl)cyclohexyl]pyrazolo[3,4-d]pyrimidin-3-yl]-2-methoxy-phenyl]-1-methyl-indole-2-carboxamide

> <PUBCHEM_IUPAC_TRADITIONAL_NAME>
N-[4-[1-[4-(4-acetylpiperazino)cyclohexyl]-4-amino-pyrazolo[3,4-d]pyrimidin-3-yl]-2-methoxy-phenyl]-1-methyl-indole-2-carboxamide

> <PUBCHEM_IUPAC_INCHI>
InChI=1S/C34H39N9O3/c1-21(44)41-14-16-42(17-15-41)24-9-11-25(12-10-24)43-33-30(32(35)36-20-37-33)31(39-43)23-8-13-26(29(19-23)46-3)38-34(45)28-18-22-6-4-5-7-27(22)40(28)2/h4-8,13,18-20,24-25H,9-12,14-17H2,1-3H3,(H,38,45)(H2,35,36,37)

> <PUBCHEM_IUPAC_INCHIKEY>
ZMNWFTYYYCSSTF-UHFFFAOYSA-N

> <PUBCHEM_XLOGP3_AA>
3.3

> <PUBCHEM_EXACT_MASS>
621.31758614

> <PUBCHEM_MOLECULAR_FORMULA>
C34H39N9O3

> <PUBCHEM_MOLECULAR_WEIGHT>
621.7

> <PUBCHEM_SMILES>
CC(=O)N1CCN(CC1)C2CCC(CC2)N3C4=NC=NC(=C4C(=N3)C5=CC(=C(C=C5)NC(=O)C6=CC7=CC=CC=C7N6C)OC)N

> <PUBCHEM_OPENEYE_CAN_SMILES>
CC(=O)N1CCN(CC1)C2CCC(CC2)N3C4=NC=NC(=C4C(=N3)C5=CC(=C(C=C5)NC(=O)C6=CC7=CC=CC=C7N6C)OC)N

> <PUBCHEM_OPENEYE_ISO_SMILES>
CC(=O)N1CCN(CC1)C2CCC(CC2)N3C4=NC=NC(=C4C(=N3)C5=CC(=C(C=C5)NC(=O)C6=CC7=CC=CC=C7N6C)OC)N

> <PUBCHEM_CACTVS_TPSA>
136

> <PUBCHEM_MONOISOTOPIC_WEIGHT>
621.31758614

> <PUBCHEM_TOTAL_CHARGE>
0

> <PUBCHEM_HEAVY_ATOM_COUNT>
46

> <PUBCHEM_ATOM_DEF_STEREO_COUNT>
0

> <PUBCHEM_ATOM_UDEF_STEREO_COUNT>
0

> <PUBCHEM_BOND_DEF_STEREO_COUNT>
0

> <PUBCHEM_BOND_UDEF_STEREO_COUNT>
0

> <PUBCHEM_ISOTOPIC_ATOM_COUNT>
0

> <PUBCHEM_COMPONENT_COUNT>
1

> <PUBCHEM_CACTVS_TAUTO_COUNT>
-1

> <PUBCHEM_COORDINATE_TYPE>
1
5
255

> <PUBCHEM_BONDANNOTATIONS>
12  37  8
12  39  8
23  24  8
24  25  8
24  27  8
28  31  8
28  32  8
31  33  8
32  34  8
33  35  8
34  35  8
37  41  8
39  40  8
39  43  8
40  41  8
40  44  8
43  45  8
44  46  8
45  46  8
5  23  8
5  7  8
7  25  8
8  23  8
8  30  8
9  27  8
9  30  8

$$$$
