49830789
  -OEChem-03202501222D

 28 30  0     0  0  0  0  0  0999 V2000
    5.5443   -2.1032    0.0000 S   0  0  0  0  0  0  0  0  0  0  0  0
    2.0000    2.7015    0.0000 F   0  0  0  0  0  0  0  0  0  0  0  0
    7.6279   -0.4325    0.0000 O   0  0  0  0  0  0  0  0  0  0  0  0
    2.8660   -1.7985    0.0000 N   0  0  0  0  0  0  0  0  0  0  0  0
    7.6279   -2.1645    0.0000 N   0  0  0  0  0  0  0  0  0  0  0  0
    4.5981   -0.7985    0.0000 C   0  0  0  0  0  0  0  0  0  0  0  0
    3.7320   -0.2985    0.0000 C   0  0  0  0  0  0  0  0  0  0  0  0
    4.5981   -1.7985    0.0000 C   0  0  0  0  0  0  0  0  0  0  0  0
    3.7320    0.7015    0.0000 C   0  0  0  0  0  0  0  0  0  0  0  0
    5.5443   -0.4938    0.0000 C   0  0  0  0  0  0  0  0  0  0  0  0
    6.1279   -1.2985    0.0000 C   0  0  0  0  0  0  0  0  0  0  0  0
    2.8660   -0.7985    0.0000 C   0  0  0  0  0  0  0  0  0  0  0  0
    3.7320   -2.2985    0.0000 C   0  0  0  0  0  0  0  0  0  0  0  0
    2.8660    1.2015    0.0000 C   0  0  0  0  0  0  0  0  0  0  0  0
    4.5981    1.2015    0.0000 C   0  0  0  0  0  0  0  0  0  0  0  0
    2.8660    2.2015    0.0000 C   0  0  0  0  0  0  0  0  0  0  0  0
    4.5981    2.2015    0.0000 C   0  0  0  0  0  0  0  0  0  0  0  0
    7.1279   -1.2985    0.0000 C   0  0  0  0  0  0  0  0  0  0  0  0
    3.7320    2.7015    0.0000 C   0  0  0  0  0  0  0  0  0  0  0  0
    5.7369    0.0955    0.0000 H   0  0  0  0  0  0  0  0  0  0  0  0
    2.3291   -0.4885    0.0000 H   0  0  0  0  0  0  0  0  0  0  0  0
    3.7320   -2.9185    0.0000 H   0  0  0  0  0  0  0  0  0  0  0  0
    2.3291    0.8915    0.0000 H   0  0  0  0  0  0  0  0  0  0  0  0
    5.1350    0.8915    0.0000 H   0  0  0  0  0  0  0  0  0  0  0  0
    5.1350    2.5115    0.0000 H   0  0  0  0  0  0  0  0  0  0  0  0
    3.7320    3.3215    0.0000 H   0  0  0  0  0  0  0  0  0  0  0  0
    8.2479   -2.1645    0.0000 H   0  0  0  0  0  0  0  0  0  0  0  0
    7.3179   -2.7015    0.0000 H   0  0  0  0  0  0  0  0  0  0  0  0
  1  8  1  0  0  0  0
  1 11  1  0  0  0  0
  2 16  1  0  0  0  0
  3 18  2  0  0  0  0
  4 12  1  0  0  0  0
  4 13  2  0  0  0  0
  5 18  1  0  0  0  0
  5 27  1  0  0  0  0
  5 28  1  0  0  0  0
  6  7  1  0  0  0  0
  6  8  2  0  0  0  0
  6 10  1  0  0  0  0
  7  9  1  0  0  0  0
  7 12  2  0  0  0  0
  8 13  1  0  0  0  0
  9 14  2  0  0  0  0
  9 15  1  0  0  0  0
 10 11  2  0  0  0  0
 10 20  1  0  0  0  0
 11 18  1  0  0  0  0
 12 21  1  0  0  0  0
 13 22  1  0  0  0  0
 14 16  1  0  0  0  0
 14 23  1  0  0  0  0
 15 17  2  0  0  0  0
 15 24  1  0  0  0  0
 16 19  2  0  0  0  0
 17 19  1  0  0  0  0
 17 25  1  0  0  0  0
 19 26  1  0  0  0  0
M  END
> <PUBCHEM_COMPOUND_CID>
49830789

> <PUBCHEM_COMPOUND_CANONICALIZED>
1

> <PUBCHEM_CACTVS_COMPLEXITY>
354

> <PUBCHEM_CACTVS_HBOND_ACCEPTOR>
4

> <PUBCHEM_CACTVS_HBOND_DONOR>
1

> <PUBCHEM_CACTVS_ROTATABLE_BOND>
2

> <PUBCHEM_CACTVS_SUBSKEYS>
AAADccBzIQBAAAAAAAAAAAAAAAAAASAAAAA8QAAAAAAAAFgB/AAAHwQQAAAADADB2gw8gdJIEAisAjF3VACDoKA1CDBI2D0oRNgIIHLglZGEIQhggADoyYcYiMCOgAAAAAAAAAAAAAAAAAAAAAAAAAAAAA==

> <PUBCHEM_IUPAC_OPENEYE_NAME>
4-(3-fluorophenyl)thieno[2,3-c]pyridine-2-carboxamide

> <PUBCHEM_IUPAC_CAS_NAME>
4-(3-fluorophenyl)-2-thieno[2,3-c]pyridinecarboxamide

> <PUBCHEM_IUPAC_NAME_MARKUP>
4-(3-fluorophenyl)thieno[2,3-c]pyridine-2-carboxamide

> <PUBCHEM_IUPAC_NAME>
4-(3-fluorophenyl)thieno[2,3-c]pyridine-2-carboxamide

> <PUBCHEM_IUPAC_SYSTEMATIC_NAME>
4-(3-fluorophenyl)thieno[2,3-c]pyridine-2-carboxamide

> <PUBCHEM_IUPAC_TRADITIONAL_NAME>
4-(3-fluorophenyl)thieno[2,3-c]pyridine-2-carboxamide

> <PUBCHEM_IUPAC_INCHI>
InChI=1S/C14H9FN2OS/c15-9-3-1-2-8(4-9)11-6-17-7-13-10(11)5-12(19-13)14(16)18/h1-7H,(H2,16,18)

> <PUBCHEM_IUPAC_INCHIKEY>
PJUVRETYCLPAFV-UHFFFAOYSA-N

> <PUBCHEM_XLOGP3_AA>
2.8

> <PUBCHEM_EXACT_MASS>
272.04196225

> <PUBCHEM_MOLECULAR_FORMULA>
C14H9FN2OS

> <PUBCHEM_MOLECULAR_WEIGHT>
272.30

> <PUBCHEM_SMILES>
C1=CC(=CC(=C1)F)C2=CN=CC3=C2C=C(S3)C(=O)N

> <PUBCHEM_OPENEYE_CAN_SMILES>
C1=CC(=CC(=C1)F)C2=CN=CC3=C2C=C(S3)C(=O)N

> <PUBCHEM_OPENEYE_ISO_SMILES>
C1=CC(=CC(=C1)F)C2=CN=CC3=C2C=C(S3)C(=O)N

> <PUBCHEM_CACTVS_TPSA>
84.2

> <PUBCHEM_MONOISOTOPIC_WEIGHT>
272.04196225

> <PUBCHEM_TOTAL_CHARGE>
0

> <PUBCHEM_HEAVY_ATOM_COUNT>
19

> <PUBCHEM_ATOM_DEF_STEREO_COUNT>
0

> <PUBCHEM_ATOM_UDEF_STEREO_COUNT>
0

> <PUBCHEM_BOND_DEF_STEREO_COUNT>
0

> <PUBCHEM_BOND_UDEF_STEREO_COUNT>
0

> <PUBCHEM_ISOTOPIC_ATOM_COUNT>
0

> <PUBCHEM_COMPONENT_COUNT>
1

> <PUBCHEM_CACTVS_TAUTO_COUNT>
-1

> <PUBCHEM_COORDINATE_TYPE>
1
5
255

> <PUBCHEM_BONDANNOTATIONS>
1  11  8
1  8  8
10  11  8
14  16  8
15  17  8
16  19  8
17  19  8
4  12  8
4  13  8
6  10  8
6  7  8
6  8  8
7  12  8
8  13  8
9  14  8
9  15  8

$$$$
