49830600
  -OEChem-03202501062D

 50 53  0     1  0  0  0  0  0999 V2000
    9.2136   -0.7211    0.0000 Cl  0  0  0  0  0  0  0  0  0  0  0  0
    7.2566   -1.1335    0.0000 O   0  0  0  0  0  0  0  0  0  0  0  0
    4.6783   -5.0564    0.0000 N   0  0  0  0  0  0  0  0  0  0  0  0
    6.6353   -3.0346    0.0000 N   0  0  0  0  0  0  0  0  0  0  0  0
    8.8564    0.9737    0.0000 N   0  0  0  0  0  0  0  0  0  0  0  0
    4.8494    5.4396    0.0000 N   0  0  0  0  0  0  0  0  0  0  0  0
    4.9889   -2.4965    0.0000 C   0  0  0  0  0  0  0  0  0  0  0  0
    5.9674   -2.2902    0.0000 C   0  0  3  0  0  0  0  0  0  0  0  0
    4.6783   -3.4470    0.0000 C   0  0  0  0  0  0  0  0  0  0  0  0
    3.7320   -3.7517    0.0000 C   0  0  0  0  0  0  0  0  0  0  0  0
    3.7320   -4.7517    0.0000 C   0  0  0  0  0  0  0  0  0  0  0  0
    6.2781   -1.3397    0.0000 C   0  0  0  0  0  0  0  0  0  0  0  0
    5.2619   -4.2517    0.0000 C   0  0  0  0  0  0  0  0  0  0  0  0
    2.8660   -3.2517    0.0000 C   0  0  0  0  0  0  0  0  0  0  0  0
    2.8660   -5.2517    0.0000 C   0  0  0  0  0  0  0  0  0  0  0  0
    2.0000   -3.7517    0.0000 C   0  0  0  0  0  0  0  0  0  0  0  0
    2.0000   -4.7517    0.0000 C   0  0  0  0  0  0  0  0  0  0  0  0
    7.5673   -0.1830    0.0000 C   0  0  0  0  0  0  0  0  0  0  0  0
    6.8994    0.5613    0.0000 C   0  0  0  0  0  0  0  0  0  0  0  0
    8.5458    0.0232    0.0000 C   0  0  0  0  0  0  0  0  0  0  0  0
    7.2101    1.5118    0.0000 C   0  0  0  0  0  0  0  0  0  0  0  0
    8.1886    1.7180    0.0000 C   0  0  0  0  0  0  0  0  0  0  0  0
    6.5422    2.2561    0.0000 C   0  0  0  0  0  0  0  0  0  0  0  0
    6.8529    3.2066    0.0000 C   0  0  0  0  0  0  0  0  0  0  0  0
    6.1851    3.9510    0.0000 C   0  0  0  0  0  0  0  0  0  0  0  0
    5.2066    3.7447    0.0000 C   0  0  0  0  0  0  0  0  0  0  0  0
    6.4957    4.9015    0.0000 C   0  0  0  0  0  0  0  0  0  0  0  0
    4.5387    4.4890    0.0000 C   0  0  0  0  0  0  0  0  0  0  0  0
    5.8279    5.6458    0.0000 C   0  0  0  0  0  0  0  0  0  0  0  0
    4.9684   -1.8768    0.0000 H   0  0  0  0  0  0  0  0  0  0  0  0
    4.3751   -2.4091    0.0000 H   0  0  0  0  0  0  0  0  0  0  0  0
    5.7748   -2.8796    0.0000 H   0  0  0  0  0  0  0  0  0  0  0  0
    6.2575   -0.7201    0.0000 H   0  0  0  0  0  0  0  0  0  0  0  0
    5.6643   -1.2524    0.0000 H   0  0  0  0  0  0  0  0  0  0  0  0
    5.8819   -4.2517    0.0000 H   0  0  0  0  0  0  0  0  0  0  0  0
    4.8709   -5.6458    0.0000 H   0  0  0  0  0  0  0  0  0  0  0  0
    2.8660   -2.6317    0.0000 H   0  0  0  0  0  0  0  0  0  0  0  0
    7.2420   -2.9067    0.0000 H   0  0  0  0  0  0  0  0  0  0  0  0
    6.4427   -3.6239    0.0000 H   0  0  0  0  0  0  0  0  0  0  0  0
    2.8660   -5.8717    0.0000 H   0  0  0  0  0  0  0  0  0  0  0  0
    1.4631   -3.4417    0.0000 H   0  0  0  0  0  0  0  0  0  0  0  0
    1.4631   -5.0617    0.0000 H   0  0  0  0  0  0  0  0  0  0  0  0
    6.2928    0.4335    0.0000 H   0  0  0  0  0  0  0  0  0  0  0  0
    8.3812    2.3074    0.0000 H   0  0  0  0  0  0  0  0  0  0  0  0
    5.9356    2.1283    0.0000 H   0  0  0  0  0  0  0  0  0  0  0  0
    7.4596    3.3345    0.0000 H   0  0  0  0  0  0  0  0  0  0  0  0
    5.0140    3.1554    0.0000 H   0  0  0  0  0  0  0  0  0  0  0  0
    7.1024    5.0293    0.0000 H   0  0  0  0  0  0  0  0  0  0  0  0
    3.9320    4.3612    0.0000 H   0  0  0  0  0  0  0  0  0  0  0  0
    6.0205    6.2351    0.0000 H   0  0  0  0  0  0  0  0  0  0  0  0
  1 20  1  0  0  0  0
  2 12  1  0  0  0  0
  2 18  1  0  0  0  0
  3 11  1  0  0  0  0
  3 13  1  0  0  0  0
  3 36  1  0  0  0  0
  4  8  1  0  0  0  0
  4 38  1  0  0  0  0
  4 39  1  0  0  0  0
  5 20  1  0  0  0  0
  5 22  2  0  0  0  0
  6 28  2  0  0  0  0
  6 29  1  0  0  0  0
  7  8  1  0  0  0  0
  7  9  1  0  0  0  0
  7 30  1  0  0  0  0
  7 31  1  0  0  0  0
  8 12  1  0  0  0  0
  8 32  1  0  0  0  0
  9 10  1  0  0  0  0
  9 13  2  0  0  0  0
 10 11  1  0  0  0  0
 10 14  2  0  0  0  0
 11 15  2  0  0  0  0
 12 33  1  0  0  0  0
 12 34  1  0  0  0  0
 13 35  1  0  0  0  0
 14 16  1  0  0  0  0
 14 37  1  0  0  0  0
 15 17  1  0  0  0  0
 15 40  1  0  0  0  0
 16 17  2  0  0  0  0
 16 41  1  0  0  0  0
 17 42  1  0  0  0  0
 18 19  1  0  0  0  0
 18 20  2  0  0  0  0
 19 21  2  0  0  0  0
 19 43  1  0  0  0  0
 21 22  1  0  0  0  0
 21 23  1  0  0  0  0
 22 44  1  0  0  0  0
 23 24  2  3  0  0  0
 23 45  1  0  0  0  0
 24 25  1  0  0  0  0
 24 46  1  0  0  0  0
 25 26  2  0  0  0  0
 25 27  1  0  0  0  0
 26 28  1  0  0  0  0
 26 47  1  0  0  0  0
 27 29  2  0  0  0  0
 27 48  1  0  0  0  0
 28 49  1  0  0  0  0
 29 50  1  0  0  0  0
M  END
> <PUBCHEM_COMPOUND_CID>
49830600

> <PUBCHEM_COMPOUND_CANONICALIZED>
1

> <PUBCHEM_CACTVS_COMPLEXITY>
527

> <PUBCHEM_CACTVS_HBOND_ACCEPTOR>
4

> <PUBCHEM_CACTVS_HBOND_DONOR>
2

> <PUBCHEM_CACTVS_ROTATABLE_BOND>
7

> <PUBCHEM_CACTVS_SUBSKEYS>
AAADceB7oAAEAAAAAAAAAAAAAAAAAWAAAAA8WIAAAAAAAFgB/gAAHgIQAAAADC7hniY8xvLJlACgAzRnRASCiCAxZmAI2aA/b5gOJuPFs5uHOCjk0BHY6Aew0PIOgAAAAAACAAAAAAAAAAQAAAAAAAAAAA==

> <PUBCHEM_IUPAC_OPENEYE_NAME>
1-[[2-chloro-5-[2-(4-pyridyl)vinyl]-3-pyridyl]oxy]-3-(1H-indol-3-yl)propan-2-amine

> <PUBCHEM_IUPAC_CAS_NAME>
1-[[2-chloro-5-(2-pyridin-4-ylethenyl)-3-pyridinyl]oxy]-3-(1H-indol-3-yl)-2-propanamine

> <PUBCHEM_IUPAC_NAME_MARKUP>
1-[2-chloro-5-(2-pyridin-4-ylethenyl)pyridin-3-yl]oxy-3-(1<I>H</I>-indol-3-yl)propan-2-amine

> <PUBCHEM_IUPAC_NAME>
1-[2-chloro-5-(2-pyridin-4-ylethenyl)pyridin-3-yl]oxy-3-(1H-indol-3-yl)propan-2-amine

> <PUBCHEM_IUPAC_SYSTEMATIC_NAME>
1-[2-chloranyl-5-(2-pyridin-4-ylethenyl)pyridin-3-yl]oxy-3-(1H-indol-3-yl)propan-2-amine

> <PUBCHEM_IUPAC_TRADITIONAL_NAME>
[1-[[2-chloro-5-[2-(4-pyridyl)vinyl]-3-pyridyl]oxymethyl]-2-(1H-indol-3-yl)ethyl]amine

> <PUBCHEM_IUPAC_INCHI>
InChI=1S/C23H21ClN4O/c24-23-22(11-17(13-28-23)6-5-16-7-9-26-10-8-16)29-15-19(25)12-18-14-27-21-4-2-1-3-20(18)21/h1-11,13-14,19,27H,12,15,25H2

> <PUBCHEM_IUPAC_INCHIKEY>
AQDWLHMFJHACCX-UHFFFAOYSA-N

> <PUBCHEM_XLOGP3_AA>
4.2

> <PUBCHEM_EXACT_MASS>
404.1403890

> <PUBCHEM_MOLECULAR_FORMULA>
C23H21ClN4O

> <PUBCHEM_MOLECULAR_WEIGHT>
404.9

> <PUBCHEM_SMILES>
C1=CC=C2C(=C1)C(=CN2)CC(COC3=C(N=CC(=C3)C=CC4=CC=NC=C4)Cl)N

> <PUBCHEM_OPENEYE_CAN_SMILES>
C1=CC=C2C(=C1)C(=CN2)CC(COC3=C(N=CC(=C3)C=CC4=CC=NC=C4)Cl)N

> <PUBCHEM_OPENEYE_ISO_SMILES>
C1=CC=C2C(=C1)C(=CN2)CC(COC3=C(N=CC(=C3)C=CC4=CC=NC=C4)Cl)N

> <PUBCHEM_CACTVS_TPSA>
76.8

> <PUBCHEM_MONOISOTOPIC_WEIGHT>
404.1403890

> <PUBCHEM_TOTAL_CHARGE>
0

> <PUBCHEM_HEAVY_ATOM_COUNT>
29

> <PUBCHEM_ATOM_DEF_STEREO_COUNT>
0

> <PUBCHEM_ATOM_UDEF_STEREO_COUNT>
1

> <PUBCHEM_BOND_DEF_STEREO_COUNT>
0

> <PUBCHEM_BOND_UDEF_STEREO_COUNT>
1

> <PUBCHEM_ISOTOPIC_ATOM_COUNT>
0

> <PUBCHEM_COMPONENT_COUNT>
1

> <PUBCHEM_CACTVS_TAUTO_COUNT>
-1

> <PUBCHEM_COORDINATE_TYPE>
1
5
255

> <PUBCHEM_BONDANNOTATIONS>
10  11  8
10  14  8
11  15  8
14  16  8
15  17  8
16  17  8
18  19  8
18  20  8
19  21  8
21  22  8
23  24  1
25  26  8
25  27  8
26  28  8
27  29  8
3  11  8
3  13  8
8  4  3
5  20  8
5  22  8
6  28  8
6  29  8
9  10  8
9  13  8

$$$$
