49830568
  -OEChem-03202501202D

 29 31  0     0  0  0  0  0  0999 V2000
    4.9036    1.8558    0.0000 O   0  0  0  0  0  0  0  0  0  0  0  0
    5.8374   -1.2358    0.0000 N   0  0  0  0  0  0  0  0  0  0  0  0
    6.3374    0.9548    0.0000 N   0  0  0  0  0  0  0  0  0  0  0  0
    4.9364   -0.8019    0.0000 C   0  0  0  0  0  0  0  0  0  0  0  0
    4.7139    0.1730    0.0000 C   0  0  0  0  0  0  0  0  0  0  0  0
    6.7384   -0.8019    0.0000 C   0  0  0  0  0  0  0  0  0  0  0  0
    6.9609    0.1730    0.0000 C   0  0  0  0  0  0  0  0  0  0  0  0
    3.7234    0.4954    0.0000 C   0  0  0  0  0  0  0  0  0  0  0  0
    5.3374    0.9548    0.0000 C   0  0  0  0  0  0  0  0  0  0  0  0
    2.9544   -0.2072    0.0000 C   0  0  0  0  0  0  0  0  0  0  0  0
    4.1839   -1.5221    0.0000 C   0  0  0  0  0  0  0  0  0  0  0  0
    3.1862   -1.2227    0.0000 C   0  0  0  0  0  0  0  0  0  0  0  0
    7.4909   -1.5221    0.0000 C   0  0  0  0  0  0  0  0  0  0  0  0
    7.9514    0.4953    0.0000 C   0  0  0  0  0  0  0  0  0  0  0  0
    8.4886   -1.2228    0.0000 C   0  0  0  0  0  0  0  0  0  0  0  0
    8.7204   -0.2073    0.0000 C   0  0  0  0  0  0  0  0  0  0  0  0
    2.0000    0.0912    0.0000 C   0  0  0  0  0  0  0  0  0  0  0  0
    5.8374   -1.8558    0.0000 H   0  0  0  0  0  0  0  0  0  0  0  0
    3.5925    1.1014    0.0000 H   0  0  0  0  0  0  0  0  0  0  0  0
    4.3288   -2.1249    0.0000 H   0  0  0  0  0  0  0  0  0  0  0  0
    6.6064    1.5134    0.0000 H   0  0  0  0  0  0  0  0  0  0  0  0
    2.7333   -1.6462    0.0000 H   0  0  0  0  0  0  0  0  0  0  0  0
    7.3460   -2.1249    0.0000 H   0  0  0  0  0  0  0  0  0  0  0  0
    8.0824    1.1013    0.0000 H   0  0  0  0  0  0  0  0  0  0  0  0
    8.9415   -1.6462    0.0000 H   0  0  0  0  0  0  0  0  0  0  0  0
    9.3122   -0.0222    0.0000 H   0  0  0  0  0  0  0  0  0  0  0  0
    2.1850    0.6830    0.0000 H   0  0  0  0  0  0  0  0  0  0  0  0
    1.4083    0.2763    0.0000 H   0  0  0  0  0  0  0  0  0  0  0  0
    1.8150   -0.5005    0.0000 H   0  0  0  0  0  0  0  0  0  0  0  0
  1  9  2  0  0  0  0
  2  4  1  0  0  0  0
  2  6  1  0  0  0  0
  2 18  1  0  0  0  0
  3  7  1  0  0  0  0
  3  9  1  0  0  0  0
  3 21  1  0  0  0  0
  4  5  2  0  0  0  0
  4 11  1  0  0  0  0
  5  8  1  0  0  0  0
  5  9  1  0  0  0  0
  6  7  1  0  0  0  0
  6 13  2  0  0  0  0
  7 14  2  0  0  0  0
  8 10  2  0  0  0  0
  8 19  1  0  0  0  0
 10 12  1  0  0  0  0
 10 17  1  0  0  0  0
 11 12  2  0  0  0  0
 11 20  1  0  0  0  0
 12 22  1  0  0  0  0
 13 15  1  0  0  0  0
 13 23  1  0  0  0  0
 14 16  1  0  0  0  0
 14 24  1  0  0  0  0
 15 16  2  0  0  0  0
 15 25  1  0  0  0  0
 16 26  1  0  0  0  0
 17 27  1  0  0  0  0
 17 28  1  0  0  0  0
 17 29  1  0  0  0  0
M  END
> <PUBCHEM_COMPOUND_CID>
49830568

> <PUBCHEM_COMPOUND_CANONICALIZED>
1

> <PUBCHEM_CACTVS_COMPLEXITY>
305

> <PUBCHEM_CACTVS_HBOND_ACCEPTOR>
2

> <PUBCHEM_CACTVS_HBOND_DONOR>
2

> <PUBCHEM_CACTVS_ROTATABLE_BOND>
0

> <PUBCHEM_CACTVS_SUBSKEYS>
AAADccBzIAAAAAAAAAAAAAAAAAAAAAAAAAAwYAAABYAAAAABQAAAHgAQAAAADAiBmAAywILAAACIAiVSUACCAAAlAgAIiAEAdMgIYHrA1ZGUIYhglADIyccYiECOCAACAAACACAQAAQAAAQAQAAAAAAAAA==

> <PUBCHEM_IUPAC_OPENEYE_NAME>
8-methyl-5,11-dihydrobenzo[b][1,4]benzodiazepin-6-one

> <PUBCHEM_IUPAC_CAS_NAME>
8-methyl-5,11-dihydrobenzo[b][1,4]benzodiazepin-6-one

> <PUBCHEM_IUPAC_NAME_MARKUP>
8-methyl-5,11-dihydrobenzo[b][1,4]benzodiazepin-6-one

> <PUBCHEM_IUPAC_NAME>
8-methyl-5,11-dihydrobenzo[b][1,4]benzodiazepin-6-one

> <PUBCHEM_IUPAC_SYSTEMATIC_NAME>
8-methyl-5,11-dihydrobenzo[b][1,4]benzodiazepin-6-one

> <PUBCHEM_IUPAC_TRADITIONAL_NAME>
8-methyl-5,11-dihydrobenzo[b][1,4]benzodiazepin-6-one

> <PUBCHEM_IUPAC_INCHI>
InChI=1S/C14H12N2O/c1-9-6-7-11-10(8-9)14(17)16-13-5-3-2-4-12(13)15-11/h2-8,15H,1H3,(H,16,17)

> <PUBCHEM_IUPAC_INCHIKEY>
XHFZDCLANHHVOK-UHFFFAOYSA-N

> <PUBCHEM_XLOGP3>
2.5

> <PUBCHEM_EXACT_MASS>
224.094963011

> <PUBCHEM_MOLECULAR_FORMULA>
C14H12N2O

> <PUBCHEM_MOLECULAR_WEIGHT>
224.26

> <PUBCHEM_SMILES>
CC1=CC2=C(C=C1)NC3=CC=CC=C3NC2=O

> <PUBCHEM_OPENEYE_CAN_SMILES>
CC1=CC2=C(C=C1)NC3=CC=CC=C3NC2=O

> <PUBCHEM_OPENEYE_ISO_SMILES>
CC1=CC2=C(C=C1)NC3=CC=CC=C3NC2=O

> <PUBCHEM_CACTVS_TPSA>
41.1

> <PUBCHEM_MONOISOTOPIC_WEIGHT>
224.094963011

> <PUBCHEM_TOTAL_CHARGE>
0

> <PUBCHEM_HEAVY_ATOM_COUNT>
17

> <PUBCHEM_ATOM_DEF_STEREO_COUNT>
0

> <PUBCHEM_ATOM_UDEF_STEREO_COUNT>
0

> <PUBCHEM_BOND_DEF_STEREO_COUNT>
0

> <PUBCHEM_BOND_UDEF_STEREO_COUNT>
0

> <PUBCHEM_ISOTOPIC_ATOM_COUNT>
0

> <PUBCHEM_COMPONENT_COUNT>
1

> <PUBCHEM_CACTVS_TAUTO_COUNT>
-1

> <PUBCHEM_COORDINATE_TYPE>
1
5
255

> <PUBCHEM_BONDANNOTATIONS>
10  12  8
11  12  8
13  15  8
14  16  8
15  16  8
4  11  8
4  5  8
5  8  8
6  13  8
6  7  8
7  14  8
8  10  8

$$$$
