22282869
  -OEChem-03202501152D

 43 45  0     1  0  0  0  0  0999 V2000
    4.2690   -0.3030    0.0000 O   0  0  0  0  0  0  0  0  0  0  0  0
    2.5369    0.6970    0.0000 O   0  0  0  0  0  0  0  0  0  0  0  0
    5.1350    1.1970    0.0000 N   0  0  0  0  0  0  0  0  0  0  0  0
    7.7331    0.6970    0.0000 N   0  0  3  0  0  0  0  0  0  0  0  0
    6.8671   -0.8030    0.0000 N   0  0  0  0  0  0  0  0  0  0  0  0
    9.5453   -2.1077    0.0000 N   0  0  0  0  0  0  0  0  0  0  0  0
    7.7331   -2.3030    0.0000 N   0  0  0  0  0  0  0  0  0  0  0  0
    6.8671    1.1970    0.0000 C   0  0  3  0  0  0  0  0  0  0  0  0
    6.8671    2.1970    0.0000 C   0  0  3  0  0  0  0  0  0  0  0  0
    6.0010    2.6970    0.0000 C   0  0  0  0  0  0  0  0  0  0  0  0
    6.0010    0.6970    0.0000 C   0  0  0  0  0  0  0  0  0  0  0  0
    5.1350    2.1970    0.0000 C   0  0  0  0  0  0  0  0  0  0  0  0
    7.7331    2.6970    0.0000 C   0  0  0  0  0  0  0  0  0  0  0  0
    7.7331   -0.3030    0.0000 C   0  0  0  0  0  0  0  0  0  0  0  0
    4.2690    0.6970    0.0000 C   0  0  0  0  0  0  0  0  0  0  0  0
    8.5991    1.1970    0.0000 C   0  0  0  0  0  0  0  0  0  0  0  0
    8.5991   -0.8030    0.0000 C   0  0  0  0  0  0  0  0  0  0  0  0
    3.4030    1.1970    0.0000 C   0  0  0  0  0  0  0  0  0  0  0  0
    8.5991   -1.8030    0.0000 C   0  0  0  0  0  0  0  0  0  0  0  0
    9.5453   -0.4982    0.0000 C   0  0  0  0  0  0  0  0  0  0  0  0
    6.8671   -1.8030    0.0000 C   0  0  0  0  0  0  0  0  0  0  0  0
   10.1289   -1.3030    0.0000 C   0  0  0  0  0  0  0  0  0  0  0  0
    7.4040    1.5070    0.0000 H   0  0  0  0  0  0  0  0  0  0  0  0
    6.8671    2.8170    0.0000 H   0  0  0  0  0  0  0  0  0  0  0  0
    6.3996    3.1720    0.0000 H   0  0  0  0  0  0  0  0  0  0  0  0
    5.6025    3.1720    0.0000 H   0  0  0  0  0  0  0  0  0  0  0  0
    5.6025    0.2221    0.0000 H   0  0  0  0  0  0  0  0  0  0  0  0
    6.3996    0.2221    0.0000 H   0  0  0  0  0  0  0  0  0  0  0  0
    4.9230    2.7796    0.0000 H   0  0  0  0  0  0  0  0  0  0  0  0
    4.5244    2.0894    0.0000 H   0  0  0  0  0  0  0  0  0  0  0  0
    8.0431    2.1601    0.0000 H   0  0  0  0  0  0  0  0  0  0  0  0
    8.2700    3.0070    0.0000 H   0  0  0  0  0  0  0  0  0  0  0  0
    7.4231    3.2340    0.0000 H   0  0  0  0  0  0  0  0  0  0  0  0
    8.9091    0.6601    0.0000 H   0  0  0  0  0  0  0  0  0  0  0  0
    9.1360    1.5070    0.0000 H   0  0  0  0  0  0  0  0  0  0  0  0
    8.2891    1.7340    0.0000 H   0  0  0  0  0  0  0  0  0  0  0  0
    3.8015    1.6720    0.0000 H   0  0  0  0  0  0  0  0  0  0  0  0
    3.0044    1.6720    0.0000 H   0  0  0  0  0  0  0  0  0  0  0  0
    9.7379    0.0911    0.0000 H   0  0  0  0  0  0  0  0  0  0  0  0
    9.7379   -2.6970    0.0000 H   0  0  0  0  0  0  0  0  0  0  0  0
    6.3301   -2.1130    0.0000 H   0  0  0  0  0  0  0  0  0  0  0  0
   10.7489   -1.3030    0.0000 H   0  0  0  0  0  0  0  0  0  0  0  0
    2.0000    1.0070    0.0000 H   0  0  0  0  0  0  0  0  0  0  0  0
  1 15  2  0  0  0  0
  2 18  1  0  0  0  0
  2 43  1  0  0  0  0
  3 11  1  0  0  0  0
  3 12  1  0  0  0  0
  3 15  1  0  0  0  0
  4  8  1  0  0  0  0
  4 14  1  0  0  0  0
  4 16  1  0  0  0  0
  5 14  2  0  0  0  0
  5 21  1  0  0  0  0
  6 19  1  0  0  0  0
  6 22  1  0  0  0  0
  6 40  1  0  0  0  0
  7 19  1  0  0  0  0
  7 21  2  0  0  0  0
  8  9  1  0  0  0  0
  8 11  1  0  0  0  0
  8 23  1  0  0  0  0
  9 10  1  0  0  0  0
  9 13  1  0  0  0  0
  9 24  1  0  0  0  0
 10 12  1  0  0  0  0
 10 25  1  0  0  0  0
 10 26  1  0  0  0  0
 11 27  1  0  0  0  0
 11 28  1  0  0  0  0
 12 29  1  0  0  0  0
 12 30  1  0  0  0  0
 13 31  1  0  0  0  0
 13 32  1  0  0  0  0
 13 33  1  0  0  0  0
 14 17  1  0  0  0  0
 15 18  1  0  0  0  0
 16 34  1  0  0  0  0
 16 35  1  0  0  0  0
 16 36  1  0  0  0  0
 17 19  2  0  0  0  0
 17 20  1  0  0  0  0
 18 37  1  0  0  0  0
 18 38  1  0  0  0  0
 20 22  2  0  0  0  0
 20 39  1  0  0  0  0
 21 41  1  0  0  0  0
 22 42  1  0  0  0  0
M  END
> <PUBCHEM_COMPOUND_CID>
22282869

> <PUBCHEM_COMPOUND_CANONICALIZED>
1

> <PUBCHEM_CACTVS_COMPLEXITY>
407

> <PUBCHEM_CACTVS_HBOND_ACCEPTOR>
5

> <PUBCHEM_CACTVS_HBOND_DONOR>
2

> <PUBCHEM_CACTVS_ROTATABLE_BOND>
3

> <PUBCHEM_CACTVS_SUBSKEYS>
AAADceBzsAAAAAAAAAAAAAAAAAAAAWAAAAAsWAAAAAAAAFgB+AAAHgAQCAAADSjhmwY/sN/JkgCoAjN3dAKCgCmxAqAJ2aB4ZJiKeMJAyMEUBAhIFgLQQCAQAAAKAAAAAAAAAAAAAAAAAAAAAAAAAAAAAA==

> <PUBCHEM_IUPAC_OPENEYE_NAME>
2-hydroxy-1-[4-methyl-3-[methyl(7H-pyrrolo[2,3-d]pyrimidin-4-yl)amino]-1-piperidyl]ethanone

> <PUBCHEM_IUPAC_CAS_NAME>
2-hydroxy-1-[4-methyl-3-[methyl(7H-pyrrolo[2,3-d]pyrimidin-4-yl)amino]-1-piperidinyl]ethanone

> <PUBCHEM_IUPAC_NAME_MARKUP>
2-hydroxy-1-[4-methyl-3-[methyl(7<I>H</I>-pyrrolo[2,3-d]pyrimidin-4-yl)amino]piperidin-1-yl]ethanone

> <PUBCHEM_IUPAC_NAME>
2-hydroxy-1-[4-methyl-3-[methyl(7H-pyrrolo[2,3-d]pyrimidin-4-yl)amino]piperidin-1-yl]ethanone

> <PUBCHEM_IUPAC_SYSTEMATIC_NAME>
1-[4-methyl-3-[methyl(7H-pyrrolo[2,3-d]pyrimidin-4-yl)amino]piperidin-1-yl]-2-oxidanyl-ethanone

> <PUBCHEM_IUPAC_TRADITIONAL_NAME>
2-hydroxy-1-[4-methyl-3-[methyl(7H-pyrrolo[2,3-d]pyrimidin-4-yl)amino]piperidino]ethanone

> <PUBCHEM_IUPAC_INCHI>
InChI=1S/C15H21N5O2/c1-10-4-6-20(13(22)8-21)7-12(10)19(2)15-11-3-5-16-14(11)17-9-18-15/h3,5,9-10,12,21H,4,6-8H2,1-2H3,(H,16,17,18)

> <PUBCHEM_IUPAC_INCHIKEY>
CCOHWQFOFWCBMH-UHFFFAOYSA-N

> <PUBCHEM_XLOGP3_AA>
1

> <PUBCHEM_EXACT_MASS>
303.16952493

> <PUBCHEM_MOLECULAR_FORMULA>
C15H21N5O2

> <PUBCHEM_MOLECULAR_WEIGHT>
303.36

> <PUBCHEM_SMILES>
CC1CCN(CC1N(C)C2=NC=NC3=C2C=CN3)C(=O)CO

> <PUBCHEM_OPENEYE_CAN_SMILES>
CC1CCN(CC1N(C)C2=NC=NC3=C2C=CN3)C(=O)CO

> <PUBCHEM_OPENEYE_ISO_SMILES>
CC1CCN(CC1N(C)C2=NC=NC3=C2C=CN3)C(=O)CO

> <PUBCHEM_CACTVS_TPSA>
85.4

> <PUBCHEM_MONOISOTOPIC_WEIGHT>
303.16952493

> <PUBCHEM_TOTAL_CHARGE>
0

> <PUBCHEM_HEAVY_ATOM_COUNT>
22

> <PUBCHEM_ATOM_DEF_STEREO_COUNT>
0

> <PUBCHEM_ATOM_UDEF_STEREO_COUNT>
2

> <PUBCHEM_BOND_DEF_STEREO_COUNT>
0

> <PUBCHEM_BOND_UDEF_STEREO_COUNT>
0

> <PUBCHEM_ISOTOPIC_ATOM_COUNT>
0

> <PUBCHEM_COMPONENT_COUNT>
1

> <PUBCHEM_CACTVS_TAUTO_COUNT>
-1

> <PUBCHEM_COORDINATE_TYPE>
1
5
255

> <PUBCHEM_BONDANNOTATIONS>
14  17  8
17  19  8
17  20  8
20  22  8
8  4  3
5  14  8
5  21  8
6  19  8
6  22  8
7  19  8
7  21  8
9  13  3

$$$$
