136183413
  -OEChem-03202500112D

 32 35  0     0  0  0  0  0  0999 V2000
    2.8660   -1.5285    0.0000 O   0  0  0  0  0  0  0  0  0  0  0  0
    6.4103   -1.3332    0.0000 N   0  0  0  0  0  0  0  0  0  0  0  0
    9.5238   -1.0285    0.0000 N   0  0  0  0  0  0  0  0  0  0  0  0
    8.5775   -1.3332    0.0000 N   0  0  0  0  0  0  0  0  0  0  0  0
    8.3713    1.2547    0.0000 N   0  0  0  0  0  0  0  0  0  0  0  0
    6.9939   -0.5285    0.0000 C   0  0  0  0  0  0  0  0  0  0  0  0
    5.4641   -1.0285    0.0000 C   0  0  0  0  0  0  0  0  0  0  0  0
    5.4641   -0.0285    0.0000 C   0  0  0  0  0  0  0  0  0  0  0  0
    7.9939   -0.5285    0.0000 C   0  0  0  0  0  0  0  0  0  0  0  0
    6.4103    0.2762    0.0000 C   0  0  0  0  0  0  0  0  0  0  0  0
    8.5775    0.2762    0.0000 C   0  0  0  0  0  0  0  0  0  0  0  0
    9.5281   -0.0344    0.0000 C   0  0  0  0  0  0  0  0  0  0  0  0
    4.5981   -1.5285    0.0000 C   0  0  0  0  0  0  0  0  0  0  0  0
    4.5981    0.4715    0.0000 C   0  0  0  0  0  0  0  0  0  0  0  0
    3.7320   -1.0285    0.0000 C   0  0  0  0  0  0  0  0  0  0  0  0
    3.7320   -0.0285    0.0000 C   0  0  0  0  0  0  0  0  0  0  0  0
   10.2724    0.6334    0.0000 C   0  0  0  0  0  0  0  0  0  0  0  0
   10.0661    1.6119    0.0000 C   0  0  0  0  0  0  0  0  0  0  0  0
    9.1156    1.9226    0.0000 C   0  0  0  0  0  0  0  0  0  0  0  0
    2.0000   -1.0285    0.0000 C   0  0  0  0  0  0  0  0  0  0  0  0
    6.6029   -1.9226    0.0000 H   0  0  0  0  0  0  0  0  0  0  0  0
    6.6029    0.8655    0.0000 H   0  0  0  0  0  0  0  0  0  0  0  0
    4.5981   -2.1485    0.0000 H   0  0  0  0  0  0  0  0  0  0  0  0
    4.5981    1.0915    0.0000 H   0  0  0  0  0  0  0  0  0  0  0  0
    3.1951    0.2815    0.0000 H   0  0  0  0  0  0  0  0  0  0  0  0
   10.0241   -1.3947    0.0000 H   0  0  0  0  0  0  0  0  0  0  0  0
   10.8617    0.4408    0.0000 H   0  0  0  0  0  0  0  0  0  0  0  0
   10.5276    2.0260    0.0000 H   0  0  0  0  0  0  0  0  0  0  0  0
    8.9878    2.5292    0.0000 H   0  0  0  0  0  0  0  0  0  0  0  0
    2.3100   -0.4916    0.0000 H   0  0  0  0  0  0  0  0  0  0  0  0
    1.4631   -0.7185    0.0000 H   0  0  0  0  0  0  0  0  0  0  0  0
    1.6900   -1.5654    0.0000 H   0  0  0  0  0  0  0  0  0  0  0  0
  1 15  1  0  0  0  0
  1 20  1  0  0  0  0
  2  6  1  0  0  0  0
  2  7  1  0  0  0  0
  2 21  1  0  0  0  0
  3  4  1  0  0  0  0
  3 12  1  0  0  0  0
  3 26  1  0  0  0  0
  4  9  2  0  0  0  0
  5 11  1  0  0  0  0
  5 19  2  0  0  0  0
  6  9  1  0  0  0  0
  6 10  2  0  0  0  0
  7  8  2  0  0  0  0
  7 13  1  0  0  0  0
  8 10  1  0  0  0  0
  8 14  1  0  0  0  0
  9 11  1  0  0  0  0
 10 22  1  0  0  0  0
 11 12  2  0  0  0  0
 12 17  1  0  0  0  0
 13 15  2  0  0  0  0
 13 23  1  0  0  0  0
 14 16  2  0  0  0  0
 14 24  1  0  0  0  0
 15 16  1  0  0  0  0
 16 25  1  0  0  0  0
 17 18  2  0  0  0  0
 17 27  1  0  0  0  0
 18 19  1  0  0  0  0
 18 28  1  0  0  0  0
 19 29  1  0  0  0  0
 20 30  1  0  0  0  0
 20 31  1  0  0  0  0
 20 32  1  0  0  0  0
M  END
> <PUBCHEM_COMPOUND_CID>
136183413

> <PUBCHEM_COMPOUND_CANONICALIZED>
1

> <PUBCHEM_CACTVS_COMPLEXITY>
353

> <PUBCHEM_CACTVS_HBOND_ACCEPTOR>
3

> <PUBCHEM_CACTVS_HBOND_DONOR>
2

> <PUBCHEM_CACTVS_ROTATABLE_BOND>
2

> <PUBCHEM_CACTVS_SUBSKEYS>
AAADccBzoAAAAAAAAAAAAAAAAAAAAWLAAAA8QAAAAAAAAFgB/gAAHgAYAAAADAzBngY+xvLrlACiAzRnRACSjCQxMiAY+SA+fJgMZuLE8duUtChm2BnI6AeQ0OMOIAAAAgACAABAAAAEAAQAAAAAAAAAAA==

> <PUBCHEM_IUPAC_OPENEYE_NAME>
3-(6-methoxy-1H-indol-2-yl)-1H-pyrazolo[4,3-b]pyridine

> <PUBCHEM_IUPAC_CAS_NAME>
3-(6-methoxy-1H-indol-2-yl)-1H-pyrazolo[4,3-b]pyridine

> <PUBCHEM_IUPAC_NAME_MARKUP>
3-(6-methoxy-1<I>H</I>-indol-2-yl)-1<I>H</I>-pyrazolo[4,3-b]pyridine

> <PUBCHEM_IUPAC_NAME>
3-(6-methoxy-1H-indol-2-yl)-1H-pyrazolo[4,3-b]pyridine

> <PUBCHEM_IUPAC_SYSTEMATIC_NAME>
3-(6-methoxy-1H-indol-2-yl)-1H-pyrazolo[4,3-b]pyridine

> <PUBCHEM_IUPAC_TRADITIONAL_NAME>
3-(6-methoxy-1H-indol-2-yl)-1H-pyrazolo[4,3-b]pyridine

> <PUBCHEM_IUPAC_INCHI>
InChI=1S/C15H12N4O/c1-20-10-5-4-9-7-13(17-12(9)8-10)15-14-11(18-19-15)3-2-6-16-14/h2-8,17H,1H3,(H,18,19)

> <PUBCHEM_IUPAC_INCHIKEY>
PRASIGARSOSUQT-UHFFFAOYSA-N

> <PUBCHEM_XLOGP3_AA>
2.4

> <PUBCHEM_EXACT_MASS>
264.10111102

> <PUBCHEM_MOLECULAR_FORMULA>
C15H12N4O

> <PUBCHEM_MOLECULAR_WEIGHT>
264.28

> <PUBCHEM_SMILES>
COC1=CC2=C(C=C1)C=C(N2)C3=NNC4=C3N=CC=C4

> <PUBCHEM_OPENEYE_CAN_SMILES>
COC1=CC2=C(C=C1)C=C(N2)C3=NNC4=C3N=CC=C4

> <PUBCHEM_OPENEYE_ISO_SMILES>
COC1=CC2=C(C=C1)C=C(N2)C3=NNC4=C3N=CC=C4

> <PUBCHEM_CACTVS_TPSA>
66.6

> <PUBCHEM_MONOISOTOPIC_WEIGHT>
264.10111102

> <PUBCHEM_TOTAL_CHARGE>
0

> <PUBCHEM_HEAVY_ATOM_COUNT>
20

> <PUBCHEM_ATOM_DEF_STEREO_COUNT>
0

> <PUBCHEM_ATOM_UDEF_STEREO_COUNT>
0

> <PUBCHEM_BOND_DEF_STEREO_COUNT>
0

> <PUBCHEM_BOND_UDEF_STEREO_COUNT>
0

> <PUBCHEM_ISOTOPIC_ATOM_COUNT>
0

> <PUBCHEM_COMPONENT_COUNT>
1

> <PUBCHEM_CACTVS_TAUTO_COUNT>
-1

> <PUBCHEM_COORDINATE_TYPE>
1
5
255

> <PUBCHEM_BONDANNOTATIONS>
11  12  8
12  17  8
13  15  8
14  16  8
15  16  8
17  18  8
18  19  8
2  6  8
2  7  8
3  12  8
3  4  8
4  9  8
5  11  8
5  19  8
6  10  8
7  13  8
7  8  8
8  10  8
8  14  8
9  11  8

$$$$
