57505528
  -OEChem-03202504502D

 42 45  0     0  0  0  0  0  0999 V2000
    2.3660    1.9510    0.0000 F   0  0  0  0  0  0  0  0  0  0  0  0
    2.0000    3.3170    0.0000 F   0  0  0  0  0  0  0  0  0  0  0  0
    3.3660    3.6830    0.0000 F   0  0  0  0  0  0  0  0  0  0  0  0
    7.1962   -3.6830    0.0000 O   0  0  0  0  0  0  0  0  0  0  0  0
    3.7320   -0.6830    0.0000 O   0  0  0  0  0  0  0  0  0  0  0  0
    5.4641   -0.6830    0.0000 N   0  0  0  0  0  0  0  0  0  0  0  0
    9.7942   -3.1830    0.0000 N   0  0  0  0  0  0  0  0  0  0  0  0
    8.9282   -3.6830    0.0000 N   0  0  0  0  0  0  0  0  0  0  0  0
   10.7404   -1.8783    0.0000 N   0  0  0  0  0  0  0  0  0  0  0  0
    4.5981    0.8170    0.0000 C   0  0  0  0  0  0  0  0  0  0  0  0
    5.4641   -1.6830    0.0000 C   0  0  0  0  0  0  0  0  0  0  0  0
    3.7320    2.3170    0.0000 C   0  0  0  0  0  0  0  0  0  0  0  0
    6.3301   -3.1830    0.0000 C   0  0  0  0  0  0  0  0  0  0  0  0
    3.7320    1.3170    0.0000 C   0  0  0  0  0  0  0  0  0  0  0  0
    6.3301   -2.1830    0.0000 C   0  0  0  0  0  0  0  0  0  0  0  0
    4.5981   -0.1830    0.0000 C   0  0  0  0  0  0  0  0  0  0  0  0
    9.7942   -2.1830    0.0000 C   0  0  0  0  0  0  0  0  0  0  0  0
    5.4641    1.3170    0.0000 C   0  0  0  0  0  0  0  0  0  0  0  0
    8.0622   -3.1830    0.0000 C   0  0  0  0  0  0  0  0  0  0  0  0
    4.5981   -2.1830    0.0000 C   0  0  0  0  0  0  0  0  0  0  0  0
    4.5981    2.8170    0.0000 C   0  0  0  0  0  0  0  0  0  0  0  0
    5.4641   -3.6830    0.0000 C   0  0  0  0  0  0  0  0  0  0  0  0
    5.4641    2.3170    0.0000 C   0  0  0  0  0  0  0  0  0  0  0  0
    8.9282   -1.6830    0.0000 C   0  0  0  0  0  0  0  0  0  0  0  0
    4.5981   -3.1830    0.0000 C   0  0  0  0  0  0  0  0  0  0  0  0
    8.0622   -2.1830    0.0000 C   0  0  0  0  0  0  0  0  0  0  0  0
    2.8660    2.8170    0.0000 C   0  0  0  0  0  0  0  0  0  0  0  0
   10.7404   -3.4878    0.0000 C   0  0  0  0  0  0  0  0  0  0  0  0
   11.3241   -2.6830    0.0000 C   0  0  0  0  0  0  0  0  0  0  0  0
    3.1951    1.0070    0.0000 H   0  0  0  0  0  0  0  0  0  0  0  0
    6.8671   -1.8730    0.0000 H   0  0  0  0  0  0  0  0  0  0  0  0
    6.0010   -0.3730    0.0000 H   0  0  0  0  0  0  0  0  0  0  0  0
    6.0010    1.0070    0.0000 H   0  0  0  0  0  0  0  0  0  0  0  0
    4.0611   -1.8730    0.0000 H   0  0  0  0  0  0  0  0  0  0  0  0
    4.5981    3.4370    0.0000 H   0  0  0  0  0  0  0  0  0  0  0  0
    5.4641   -4.3030    0.0000 H   0  0  0  0  0  0  0  0  0  0  0  0
    6.0010    2.6270    0.0000 H   0  0  0  0  0  0  0  0  0  0  0  0
    8.9282   -1.0630    0.0000 H   0  0  0  0  0  0  0  0  0  0  0  0
    7.5252   -1.8730    0.0000 H   0  0  0  0  0  0  0  0  0  0  0  0
    4.0611   -3.4930    0.0000 H   0  0  0  0  0  0  0  0  0  0  0  0
   10.9331   -4.0771    0.0000 H   0  0  0  0  0  0  0  0  0  0  0  0
   11.9441   -2.6830    0.0000 H   0  0  0  0  0  0  0  0  0  0  0  0
  1 27  1  0  0  0  0
  2 27  1  0  0  0  0
  3 27  1  0  0  0  0
  4 13  1  0  0  0  0
  4 19  1  0  0  0  0
  5 16  2  0  0  0  0
  6 11  1  0  0  0  0
  6 16  1  0  0  0  0
  6 32  1  0  0  0  0
  7  8  1  0  0  0  0
  7 17  1  0  0  0  0
  7 28  1  0  0  0  0
  8 19  2  0  0  0  0
  9 17  2  0  0  0  0
  9 29  1  0  0  0  0
 10 14  2  0  0  0  0
 10 16  1  0  0  0  0
 10 18  1  0  0  0  0
 11 15  2  0  0  0  0
 11 20  1  0  0  0  0
 12 14  1  0  0  0  0
 12 21  2  0  0  0  0
 12 27  1  0  0  0  0
 13 15  1  0  0  0  0
 13 22  2  0  0  0  0
 14 30  1  0  0  0  0
 15 31  1  0  0  0  0
 17 24  1  0  0  0  0
 18 23  2  0  0  0  0
 18 33  1  0  0  0  0
 19 26  1  0  0  0  0
 20 25  2  0  0  0  0
 20 34  1  0  0  0  0
 21 23  1  0  0  0  0
 21 35  1  0  0  0  0
 22 25  1  0  0  0  0
 22 36  1  0  0  0  0
 23 37  1  0  0  0  0
 24 26  2  0  0  0  0
 24 38  1  0  0  0  0
 25 40  1  0  0  0  0
 26 39  1  0  0  0  0
 28 29  2  0  0  0  0
 28 41  1  0  0  0  0
 29 42  1  0  0  0  0
M  END
> <PUBCHEM_COMPOUND_CID>
57505528

> <PUBCHEM_COMPOUND_CANONICALIZED>
1

> <PUBCHEM_CACTVS_COMPLEXITY>
576

> <PUBCHEM_CACTVS_HBOND_ACCEPTOR>
7

> <PUBCHEM_CACTVS_HBOND_DONOR>
1

> <PUBCHEM_CACTVS_ROTATABLE_BOND>
4

> <PUBCHEM_CACTVS_SUBSKEYS>
AAADccB7sYAAAAAAAAAAAAAAAAAAAWAAAAA8YIAAAAAAAFgB9AAAHwAYAAAADAzBmxQ99p7IFACqAjd3dACSjC81sqAd2CE+fNiMbvLEvZueuSju3BvI6ae42EOOAAACAgAAAAAAAAQEAAAAAAAAAAAAAA==

> <PUBCHEM_IUPAC_OPENEYE_NAME>
N-(3-imidazo[1,2-b]pyridazin-6-yloxyphenyl)-3-(trifluoromethyl)benzamide

> <PUBCHEM_IUPAC_CAS_NAME>
N-[3-(6-imidazo[1,2-b]pyridazinyloxy)phenyl]-3-(trifluoromethyl)benzamide

> <PUBCHEM_IUPAC_NAME_MARKUP>
<I>N</I>-(3-imidazo[1,2-b]pyridazin-6-yloxyphenyl)-3-(trifluoromethyl)benzamide

> <PUBCHEM_IUPAC_NAME>
N-(3-imidazo[1,2-b]pyridazin-6-yloxyphenyl)-3-(trifluoromethyl)benzamide

> <PUBCHEM_IUPAC_SYSTEMATIC_NAME>
N-(3-imidazo[1,2-b]pyridazin-6-yloxyphenyl)-3-(trifluoromethyl)benzamide

> <PUBCHEM_IUPAC_TRADITIONAL_NAME>
N-(3-imidazo[1,2-b]pyridazin-6-yloxyphenyl)-3-(trifluoromethyl)benzamide

> <PUBCHEM_IUPAC_INCHI>
InChI=1S/C20H13F3N4O2/c21-20(22,23)14-4-1-3-13(11-14)19(28)25-15-5-2-6-16(12-15)29-18-8-7-17-24-9-10-27(17)26-18/h1-12H,(H,25,28)

> <PUBCHEM_IUPAC_INCHIKEY>
BRFOGQVFBWDQGX-UHFFFAOYSA-N

> <PUBCHEM_XLOGP3_AA>
3.9

> <PUBCHEM_EXACT_MASS>
398.09906016

> <PUBCHEM_MOLECULAR_FORMULA>
C20H13F3N4O2

> <PUBCHEM_MOLECULAR_WEIGHT>
398.3

> <PUBCHEM_SMILES>
C1=CC(=CC(=C1)C(F)(F)F)C(=O)NC2=CC(=CC=C2)OC3=NN4C=CN=C4C=C3

> <PUBCHEM_OPENEYE_CAN_SMILES>
C1=CC(=CC(=C1)C(F)(F)F)C(=O)NC2=CC(=CC=C2)OC3=NN4C=CN=C4C=C3

> <PUBCHEM_OPENEYE_ISO_SMILES>
C1=CC(=CC(=C1)C(F)(F)F)C(=O)NC2=CC(=CC=C2)OC3=NN4C=CN=C4C=C3

> <PUBCHEM_CACTVS_TPSA>
68.5

> <PUBCHEM_MONOISOTOPIC_WEIGHT>
398.09906016

> <PUBCHEM_TOTAL_CHARGE>
0

> <PUBCHEM_HEAVY_ATOM_COUNT>
29

> <PUBCHEM_ATOM_DEF_STEREO_COUNT>
0

> <PUBCHEM_ATOM_UDEF_STEREO_COUNT>
0

> <PUBCHEM_BOND_DEF_STEREO_COUNT>
0

> <PUBCHEM_BOND_UDEF_STEREO_COUNT>
0

> <PUBCHEM_ISOTOPIC_ATOM_COUNT>
0

> <PUBCHEM_COMPONENT_COUNT>
1

> <PUBCHEM_CACTVS_TAUTO_COUNT>
-1

> <PUBCHEM_COORDINATE_TYPE>
1
5
255

> <PUBCHEM_BONDANNOTATIONS>
10  14  8
10  18  8
11  15  8
11  20  8
12  14  8
12  21  8
13  15  8
13  22  8
17  24  8
18  23  8
19  26  8
20  25  8
21  23  8
22  25  8
24  26  8
28  29  8
7  17  8
7  28  8
7  8  8
8  19  8
9  17  8
9  29  8

$$$$
