15986273
  -OEChem-03202501052D

 28 30  0     0  0  0  0  0  0999 V2000
    8.7204    1.0562    0.0000 Cl  0  0  0  0  0  0  0  0  0  0  0  0
    5.8169    2.8208    0.0000 O   0  0  0  0  0  0  0  0  0  0  0  0
    4.4222   -1.8131    0.0000 O   0  0  0  0  0  0  0  0  0  0  0  0
    4.8830   -0.2708    0.0000 N   0  0  0  0  0  0  0  0  0  0  0  0
    4.3830    1.9198    0.0000 N   0  0  0  0  0  0  0  0  0  0  0  0
    6.5365   -0.5571    0.0000 N   0  0  0  0  0  0  0  0  0  0  0  0
    7.5342   -0.2578    0.0000 N   0  0  0  0  0  0  0  0  0  0  0  0
    2.7381   -2.2180    0.0000 N   0  0  0  0  0  0  0  0  0  0  0  0
    3.9820    0.1631    0.0000 C   0  0  0  0  0  0  0  0  0  0  0  0
    3.7595    1.1380    0.0000 C   0  0  0  0  0  0  0  0  0  0  0  0
    3.2295   -0.5571    0.0000 C   0  0  0  0  0  0  0  0  0  0  0  0
    5.7840    0.1631    0.0000 C   0  0  0  0  0  0  0  0  0  0  0  0
    6.0065    1.1380    0.0000 C   0  0  0  0  0  0  0  0  0  0  0  0
    2.7690    1.4604    0.0000 C   0  0  0  0  0  0  0  0  0  0  0  0
    5.3830    1.9198    0.0000 C   0  0  0  0  0  0  0  0  0  0  0  0
    2.2318   -0.2577    0.0000 C   0  0  0  0  0  0  0  0  0  0  0  0
    2.0000    0.7578    0.0000 C   0  0  0  0  0  0  0  0  0  0  0  0
    6.9970    1.4603    0.0000 C   0  0  0  0  0  0  0  0  0  0  0  0
    3.4632   -1.5294    0.0000 C   0  0  0  0  0  0  0  0  0  0  0  0
    7.7660    0.7577    0.0000 C   0  0  0  0  0  0  0  0  0  0  0  0
    4.8830   -0.8908    0.0000 H   0  0  0  0  0  0  0  0  0  0  0  0
    4.1140    2.4784    0.0000 H   0  0  0  0  0  0  0  0  0  0  0  0
    2.6380    2.0664    0.0000 H   0  0  0  0  0  0  0  0  0  0  0  0
    1.7789   -0.6812    0.0000 H   0  0  0  0  0  0  0  0  0  0  0  0
    1.4083    0.9428    0.0000 H   0  0  0  0  0  0  0  0  0  0  0  0
    7.1280    2.0663    0.0000 H   0  0  0  0  0  0  0  0  0  0  0  0
    2.8830   -2.8208    0.0000 H   0  0  0  0  0  0  0  0  0  0  0  0
    2.1436   -2.0421    0.0000 H   0  0  0  0  0  0  0  0  0  0  0  0
  1 20  1  0  0  0  0
  2 15  2  0  0  0  0
  3 19  2  0  0  0  0
  4  9  1  0  0  0  0
  4 12  1  0  0  0  0
  4 21  1  0  0  0  0
  5 10  1  0  0  0  0
  5 15  1  0  0  0  0
  5 22  1  0  0  0  0
  6  7  1  0  0  0  0
  6 12  2  0  0  0  0
  7 20  2  0  0  0  0
  8 19  1  0  0  0  0
  8 27  1  0  0  0  0
  8 28  1  0  0  0  0
  9 10  1  0  0  0  0
  9 11  2  0  0  0  0
 10 14  2  0  0  0  0
 11 16  1  0  0  0  0
 11 19  1  0  0  0  0
 12 13  1  0  0  0  0
 13 15  1  0  0  0  0
 13 18  2  0  0  0  0
 14 17  1  0  0  0  0
 14 23  1  0  0  0  0
 16 17  2  0  0  0  0
 16 24  1  0  0  0  0
 17 25  1  0  0  0  0
 18 20  1  0  0  0  0
 18 26  1  0  0  0  0
M  END
> <PUBCHEM_COMPOUND_CID>
15986273

> <PUBCHEM_COMPOUND_CANONICALIZED>
1

> <PUBCHEM_CACTVS_COMPLEXITY>
421

> <PUBCHEM_CACTVS_HBOND_ACCEPTOR>
5

> <PUBCHEM_CACTVS_HBOND_DONOR>
3

> <PUBCHEM_CACTVS_ROTATABLE_BOND>
1

> <PUBCHEM_CACTVS_SUBSKEYS>
AAADccBzsAAEAAAAAAAAAAAAAAAAAAAAAAA8QAAABYAAAAABwAAAHgIYAAAADAqBmiAx8JLAAACqAidycACSBAIlBwAdmCEwdtiIYPrB35GUoYhwnALIyecciACOAAAAQAACACAAAACAAAQAQAAAAAAAAA==

> <PUBCHEM_IUPAC_OPENEYE_NAME>
3-chloro-5-oxo-6,11-dihydropyridazino[3,4-b][1,5]benzodiazepine-10-carboxamide

> <PUBCHEM_IUPAC_CAS_NAME>
3-chloro-5-oxo-6,11-dihydropyridazino[3,4-b][1,5]benzodiazepine-10-carboxamide

> <PUBCHEM_IUPAC_NAME_MARKUP>
3-chloro-5-oxo-6,11-dihydropyridazino[3,4-b][1,5]benzodiazepine-10-carboxamide

> <PUBCHEM_IUPAC_NAME>
3-chloro-5-oxo-6,11-dihydropyridazino[3,4-b][1,5]benzodiazepine-10-carboxamide

> <PUBCHEM_IUPAC_SYSTEMATIC_NAME>
3-chloranyl-5-oxidanylidene-6,11-dihydropyridazino[3,4-b][1,5]benzodiazepine-10-carboxamide

> <PUBCHEM_IUPAC_TRADITIONAL_NAME>
3-chloro-5-keto-6,11-dihydropyridazino[3,4-b][1,5]benzodiazepine-10-carboxamide

> <PUBCHEM_IUPAC_INCHI>
InChI=1S/C12H8ClN5O2/c13-8-4-6-11(18-17-8)16-9-5(10(14)19)2-1-3-7(9)15-12(6)20/h1-4H,(H2,14,19)(H,15,20)(H,16,18)

> <PUBCHEM_IUPAC_INCHIKEY>
RXVOXSGTUROJOL-UHFFFAOYSA-N

> <PUBCHEM_XLOGP3_AA>
0.5

> <PUBCHEM_EXACT_MASS>
289.0366522

> <PUBCHEM_MOLECULAR_FORMULA>
C12H8ClN5O2

> <PUBCHEM_MOLECULAR_WEIGHT>
289.68

> <PUBCHEM_SMILES>
C1=CC(=C2C(=C1)NC(=O)C3=CC(=NN=C3N2)Cl)C(=O)N

> <PUBCHEM_OPENEYE_CAN_SMILES>
C1=CC(=C2C(=C1)NC(=O)C3=CC(=NN=C3N2)Cl)C(=O)N

> <PUBCHEM_OPENEYE_ISO_SMILES>
C1=CC(=C2C(=C1)NC(=O)C3=CC(=NN=C3N2)Cl)C(=O)N

> <PUBCHEM_CACTVS_TPSA>
110

> <PUBCHEM_MONOISOTOPIC_WEIGHT>
289.0366522

> <PUBCHEM_TOTAL_CHARGE>
0

> <PUBCHEM_HEAVY_ATOM_COUNT>
20

> <PUBCHEM_ATOM_DEF_STEREO_COUNT>
0

> <PUBCHEM_ATOM_UDEF_STEREO_COUNT>
0

> <PUBCHEM_BOND_DEF_STEREO_COUNT>
0

> <PUBCHEM_BOND_UDEF_STEREO_COUNT>
0

> <PUBCHEM_ISOTOPIC_ATOM_COUNT>
0

> <PUBCHEM_COMPONENT_COUNT>
1

> <PUBCHEM_CACTVS_TAUTO_COUNT>
-1

> <PUBCHEM_COORDINATE_TYPE>
1
5
255

> <PUBCHEM_BONDANNOTATIONS>
10  14  8
11  16  8
12  13  8
13  18  8
14  17  8
16  17  8
18  20  8
6  12  8
6  7  8
7  20  8
9  10  8
9  11  8

$$$$
