24905297
  -OEChem-03192523592D

 43 45  0     0  0  0  0  0  0999 V2000
    5.9209    2.9120    0.0000 O   0  0  0  0  0  0  0  0  0  0  0  0
    7.2566    1.4234    0.0000 O   0  0  0  0  0  0  0  0  0  0  0  0
    4.6783   -2.4996    0.0000 N   0  0  0  0  0  0  0  0  0  0  0  0
    5.2619   -1.6948    0.0000 N   0  0  0  0  0  0  0  0  0  0  0  0
    2.8660   -2.6948    0.0000 N   0  0  0  0  0  0  0  0  0  0  0  0
    2.0000   -1.1948    0.0000 N   0  0  0  0  0  0  0  0  0  0  0  0
    2.8660    0.3052    0.0000 N   0  0  0  0  0  0  0  0  0  0  0  0
    4.6783   -0.8901    0.0000 C   0  0  0  0  0  0  0  0  0  0  0  0
    3.7320   -1.1948    0.0000 C   0  0  0  0  0  0  0  0  0  0  0  0
    3.7320   -2.1948    0.0000 C   0  0  0  0  0  0  0  0  0  0  0  0
    4.9889    0.0604    0.0000 C   0  0  0  0  0  0  0  0  0  0  0  0
    4.9889   -3.4501    0.0000 C   0  0  0  0  0  0  0  0  0  0  0  0
    2.8660   -0.6948    0.0000 C   0  0  0  0  0  0  0  0  0  0  0  0
    5.9674    0.2666    0.0000 C   0  0  0  0  0  0  0  0  0  0  0  0
    4.3211    0.8047    0.0000 C   0  0  0  0  0  0  0  0  0  0  0  0
    6.2781    1.2172    0.0000 C   0  0  0  0  0  0  0  0  0  0  0  0
    5.6103    1.9615    0.0000 C   0  0  0  0  0  0  0  0  0  0  0  0
    4.6318    1.7552    0.0000 C   0  0  0  0  0  0  0  0  0  0  0  0
    5.9674   -3.6563    0.0000 C   0  0  0  0  0  0  0  0  0  0  0  0
    2.0000   -2.1948    0.0000 C   0  0  0  0  0  0  0  0  0  0  0  0
    5.2531    3.6563    0.0000 C   0  0  0  0  0  0  0  0  0  0  0  0
    6.2781   -4.6068    0.0000 C   0  0  0  0  0  0  0  0  0  0  0  0
    5.5637    4.6068    0.0000 C   0  0  0  0  0  0  0  0  0  0  0  0
    7.9244    0.6791    0.0000 C   0  0  0  0  0  0  0  0  0  0  0  0
    4.3751   -3.5374    0.0000 H   0  0  0  0  0  0  0  0  0  0  0  0
    4.9684   -4.0697    0.0000 H   0  0  0  0  0  0  0  0  0  0  0  0
    6.3815   -0.1948    0.0000 H   0  0  0  0  0  0  0  0  0  0  0  0
    3.7144    0.6769    0.0000 H   0  0  0  0  0  0  0  0  0  0  0  0
    4.2177    2.2167    0.0000 H   0  0  0  0  0  0  0  0  0  0  0  0
    6.3815   -3.1948    0.0000 H   0  0  0  0  0  0  0  0  0  0  0  0
    1.4631   -2.5048    0.0000 H   0  0  0  0  0  0  0  0  0  0  0  0
    2.3291    0.6152    0.0000 H   0  0  0  0  0  0  0  0  0  0  0  0
    3.4030    0.6152    0.0000 H   0  0  0  0  0  0  0  0  0  0  0  0
    4.7062    3.9483    0.0000 H   0  0  0  0  0  0  0  0  0  0  0  0
    4.8705    3.1684    0.0000 H   0  0  0  0  0  0  0  0  0  0  0  0
    5.8640   -5.0683    0.0000 H   0  0  0  0  0  0  0  0  0  0  0  0
    6.8848   -4.7347    0.0000 H   0  0  0  0  0  0  0  0  0  0  0  0
    6.1531    4.4142    0.0000 H   0  0  0  0  0  0  0  0  0  0  0  0
    5.7564    5.1961    0.0000 H   0  0  0  0  0  0  0  0  0  0  0  0
    4.9744    4.7994    0.0000 H   0  0  0  0  0  0  0  0  0  0  0  0
    7.4630    0.2650    0.0000 H   0  0  0  0  0  0  0  0  0  0  0  0
    8.3385    0.2176    0.0000 H   0  0  0  0  0  0  0  0  0  0  0  0
    8.3859    1.0932    0.0000 H   0  0  0  0  0  0  0  0  0  0  0  0
  1 17  1  0  0  0  0
  1 21  1  0  0  0  0
  2 16  1  0  0  0  0
  2 24  1  0  0  0  0
  3  4  1  0  0  0  0
  3 10  1  0  0  0  0
  3 12  1  0  0  0  0
  4  8  2  0  0  0  0
  5 10  2  0  0  0  0
  5 20  1  0  0  0  0
  6 13  1  0  0  0  0
  6 20  2  0  0  0  0
  7 13  1  0  0  0  0
  7 32  1  0  0  0  0
  7 33  1  0  0  0  0
  8  9  1  0  0  0  0
  8 11  1  0  0  0  0
  9 10  1  0  0  0  0
  9 13  2  0  0  0  0
 11 14  2  0  0  0  0
 11 15  1  0  0  0  0
 12 19  1  0  0  0  0
 12 25  1  0  0  0  0
 12 26  1  0  0  0  0
 14 16  1  0  0  0  0
 14 27  1  0  0  0  0
 15 18  2  0  0  0  0
 15 28  1  0  0  0  0
 16 17  2  0  0  0  0
 17 18  1  0  0  0  0
 18 29  1  0  0  0  0
 19 22  2  0  0  0  0
 19 30  1  0  0  0  0
 20 31  1  0  0  0  0
 21 23  1  0  0  0  0
 21 34  1  0  0  0  0
 21 35  1  0  0  0  0
 22 36  1  0  0  0  0
 22 37  1  0  0  0  0
 23 38  1  0  0  0  0
 23 39  1  0  0  0  0
 23 40  1  0  0  0  0
 24 41  1  0  0  0  0
 24 42  1  0  0  0  0
 24 43  1  0  0  0  0
M  END
> <PUBCHEM_COMPOUND_CID>
24905297

> <PUBCHEM_COMPOUND_CANONICALIZED>
1

> <PUBCHEM_CACTVS_COMPLEXITY>
424

> <PUBCHEM_CACTVS_HBOND_ACCEPTOR>
6

> <PUBCHEM_CACTVS_HBOND_DONOR>
1

> <PUBCHEM_CACTVS_ROTATABLE_BOND>
6

> <PUBCHEM_CACTVS_SUBSKEYS>
AAADceB7sAAAAAAAAAAAAAAAAAAAAWAAAAA8QAAAAAAAAFgB/AAAHgAYAAAADAzhnwY3tt5IFACiAyZjZACSjCsxoKAd2CAuzJiNLqLE+duGvCrsyBPK6Cew0PEOIAABAAAAQABAAAIAAACAAAAAAAAAAA==

> <PUBCHEM_IUPAC_OPENEYE_NAME>
1-allyl-3-(4-ethoxy-3-methoxy-phenyl)pyrazolo[3,4-d]pyrimidin-4-amine

> <PUBCHEM_IUPAC_CAS_NAME>
3-(4-ethoxy-3-methoxyphenyl)-1-prop-2-enyl-4-pyrazolo[3,4-d]pyrimidinamine

> <PUBCHEM_IUPAC_NAME_MARKUP>
3-(4-ethoxy-3-methoxyphenyl)-1-prop-2-enylpyrazolo[3,4-d]pyrimidin-4-amine

> <PUBCHEM_IUPAC_NAME>
3-(4-ethoxy-3-methoxyphenyl)-1-prop-2-enylpyrazolo[3,4-d]pyrimidin-4-amine

> <PUBCHEM_IUPAC_SYSTEMATIC_NAME>
3-(4-ethoxy-3-methoxy-phenyl)-1-prop-2-enyl-pyrazolo[3,4-d]pyrimidin-4-amine

> <PUBCHEM_IUPAC_TRADITIONAL_NAME>
[1-allyl-3-(4-ethoxy-3-methoxy-phenyl)pyrazolo[3,4-d]pyrimidin-4-yl]amine

> <PUBCHEM_IUPAC_INCHI>
InChI=1S/C17H19N5O2/c1-4-8-22-17-14(16(18)19-10-20-17)15(21-22)11-6-7-12(24-5-2)13(9-11)23-3/h4,6-7,9-10H,1,5,8H2,2-3H3,(H2,18,19,20)

> <PUBCHEM_IUPAC_INCHIKEY>
GGBQGMRDBYCCLW-UHFFFAOYSA-N

> <PUBCHEM_XLOGP3_AA>
2.6

> <PUBCHEM_EXACT_MASS>
325.15387487

> <PUBCHEM_MOLECULAR_FORMULA>
C17H19N5O2

> <PUBCHEM_MOLECULAR_WEIGHT>
325.4

> <PUBCHEM_SMILES>
CCOC1=C(C=C(C=C1)C2=NN(C3=NC=NC(=C23)N)CC=C)OC

> <PUBCHEM_OPENEYE_CAN_SMILES>
CCOC1=C(C=C(C=C1)C2=NN(C3=NC=NC(=C23)N)CC=C)OC

> <PUBCHEM_OPENEYE_ISO_SMILES>
CCOC1=C(C=C(C=C1)C2=NN(C3=NC=NC(=C23)N)CC=C)OC

> <PUBCHEM_CACTVS_TPSA>
88.1

> <PUBCHEM_MONOISOTOPIC_WEIGHT>
325.15387487

> <PUBCHEM_TOTAL_CHARGE>
0

> <PUBCHEM_HEAVY_ATOM_COUNT>
24

> <PUBCHEM_ATOM_DEF_STEREO_COUNT>
0

> <PUBCHEM_ATOM_UDEF_STEREO_COUNT>
0

> <PUBCHEM_BOND_DEF_STEREO_COUNT>
0

> <PUBCHEM_BOND_UDEF_STEREO_COUNT>
0

> <PUBCHEM_ISOTOPIC_ATOM_COUNT>
0

> <PUBCHEM_COMPONENT_COUNT>
1

> <PUBCHEM_CACTVS_TAUTO_COUNT>
-1

> <PUBCHEM_COORDINATE_TYPE>
1
5
255

> <PUBCHEM_BONDANNOTATIONS>
11  14  8
11  15  8
14  16  8
15  18  8
16  17  8
17  18  8
3  10  8
3  4  8
4  8  8
5  10  8
5  20  8
6  13  8
6  20  8
8  9  8
9  10  8
9  13  8

$$$$
