2779952
  -OEChem-03202506332D

 24 25  0     0  0  0  0  0  0999 V2000
    6.4103    0.4877    0.0000 S   0  0  0  0  0  0  0  0  0  0  0  0
    2.0000   -1.8170    0.0000 F   0  0  0  0  0  0  0  0  0  0  0  0
    2.3660   -0.4510    0.0000 F   0  0  0  0  0  0  0  0  0  0  0  0
    3.3660   -2.1830    0.0000 F   0  0  0  0  0  0  0  0  0  0  0  0
    6.7210   -2.0722    0.0000 O   0  5  0  0  0  0  0  0  0  0  0  0
    3.7320    2.1830    0.0000 O   0  5  0  0  0  0  0  0  0  0  0  0
    5.4641    2.1830    0.0000 O   0  0  0  0  0  0  0  0  0  0  0  0
    8.4939   -1.1830    0.0000 O   0  0  0  0  0  0  0  0  0  0  0  0
    6.4103   -1.1217    0.0000 N   0  3  0  0  0  0  0  0  0  0  0  0
    4.5981    1.6830    0.0000 N   0  3  0  0  0  0  0  0  0  0  0  0
    8.4939    0.5490    0.0000 N   0  0  0  0  0  0  0  0  0  0  0  0
    5.4641   -0.8170    0.0000 C   0  0  0  0  0  0  0  0  0  0  0  0
    5.4641    0.1830    0.0000 C   0  0  0  0  0  0  0  0  0  0  0  0
    4.5981    0.6830    0.0000 C   0  0  0  0  0  0  0  0  0  0  0  0
    3.7320   -0.8170    0.0000 C   0  0  0  0  0  0  0  0  0  0  0  0
    4.5981   -1.3170    0.0000 C   0  0  0  0  0  0  0  0  0  0  0  0
    3.7320    0.1830    0.0000 C   0  0  0  0  0  0  0  0  0  0  0  0
    6.9939   -0.3170    0.0000 C   0  0  0  0  0  0  0  0  0  0  0  0
    2.8660   -1.3170    0.0000 C   0  0  0  0  0  0  0  0  0  0  0  0
    7.9939   -0.3170    0.0000 C   0  0  0  0  0  0  0  0  0  0  0  0
    4.5981   -1.9370    0.0000 H   0  0  0  0  0  0  0  0  0  0  0  0
    3.1951    0.4930    0.0000 H   0  0  0  0  0  0  0  0  0  0  0  0
    9.1139    0.5490    0.0000 H   0  0  0  0  0  0  0  0  0  0  0  0
    8.1839    1.0860    0.0000 H   0  0  0  0  0  0  0  0  0  0  0  0
  1 13  1  0  0  0  0
  1 18  1  0  0  0  0
  2 19  1  0  0  0  0
  3 19  1  0  0  0  0
  4 19  1  0  0  0  0
  5  9  1  0  0  0  0
  6 10  1  0  0  0  0
  7 10  2  0  0  0  0
  8 20  2  0  0  0  0
  9 12  1  0  0  0  0
  9 18  2  0  0  0  0
 10 14  1  0  0  0  0
 11 20  1  0  0  0  0
 11 23  1  0  0  0  0
 11 24  1  0  0  0  0
 12 13  2  0  0  0  0
 12 16  1  0  0  0  0
 13 14  1  0  0  0  0
 14 17  2  0  0  0  0
 15 16  2  0  0  0  0
 15 17  1  0  0  0  0
 15 19  1  0  0  0  0
 16 21  1  0  0  0  0
 17 22  1  0  0  0  0
 18 20  1  0  0  0  0
M  CHG  4   5  -1   6  -1   9   1  10   1
M  END
> <PUBCHEM_COMPOUND_CID>
2779952

> <PUBCHEM_COMPOUND_CANONICALIZED>
1

> <PUBCHEM_CACTVS_COMPLEXITY>
430

> <PUBCHEM_CACTVS_HBOND_ACCEPTOR>
8

> <PUBCHEM_CACTVS_HBOND_DONOR>
1

> <PUBCHEM_CACTVS_ROTATABLE_BOND>
1

> <PUBCHEM_CACTVS_SUBSKEYS>
AAADcYBzOYBAAAAAAAAAAAAAAAAAAWAAAAAwAAAAAAAAAFgB8AAAHwQUAAAADAiB3hAwwbJYUAitAyVyVwCD8KBjCjggmDSwZJoIYCLg0fGUJAhggADoyAcQgAAOEAAAQAQAAQAgAACACAACAAAAAAAAAA==

> <PUBCHEM_IUPAC_OPENEYE_NAME>
7-nitro-3-oxido-5-(trifluoromethyl)-1,3-benzothiazol-3-ium-2-carboxamide

> <PUBCHEM_IUPAC_CAS_NAME>
7-nitro-3-oxido-5-(trifluoromethyl)-1,3-benzothiazol-3-ium-2-carboxamide

> <PUBCHEM_IUPAC_NAME_MARKUP>
7-nitro-3-oxido-5-(trifluoromethyl)-1,3-benzothiazol-3-ium-2-carboxamide

> <PUBCHEM_IUPAC_NAME>
7-nitro-3-oxido-5-(trifluoromethyl)-1,3-benzothiazol-3-ium-2-carboxamide

> <PUBCHEM_IUPAC_SYSTEMATIC_NAME>
7-nitro-3-oxidanidyl-5-(trifluoromethyl)-1,3-benzothiazol-3-ium-2-carboxamide

> <PUBCHEM_IUPAC_TRADITIONAL_NAME>
7-nitro-3-oxido-5-(trifluoromethyl)-1,3-benzothiazol-3-ium-2-carboxamide

> <PUBCHEM_IUPAC_INCHI>
InChI=1S/C9H4F3N3O4S/c10-9(11,12)3-1-4-6(5(2-3)15(18)19)20-8(7(13)16)14(4)17/h1-2H,(H2,13,16)

> <PUBCHEM_IUPAC_INCHIKEY>
FHFLXKUKCSDMLD-UHFFFAOYSA-N

> <PUBCHEM_XLOGP3_AA>
2.5

> <PUBCHEM_EXACT_MASS>
306.98746128

> <PUBCHEM_MOLECULAR_FORMULA>
C9H4F3N3O4S

> <PUBCHEM_MOLECULAR_WEIGHT>
307.21

> <PUBCHEM_SMILES>
C1=C(C=C(C2=C1[N+](=C(S2)C(=O)N)[O-])[N+](=O)[O-])C(F)(F)F

> <PUBCHEM_OPENEYE_CAN_SMILES>
C1=C(C=C(C2=C1[N+](=C(S2)C(=O)N)[O-])[N+](=O)[O-])C(F)(F)F

> <PUBCHEM_OPENEYE_ISO_SMILES>
C1=C(C=C(C2=C1[N+](=C(S2)C(=O)N)[O-])[N+](=O)[O-])C(F)(F)F

> <PUBCHEM_CACTVS_TPSA>
143

> <PUBCHEM_MONOISOTOPIC_WEIGHT>
306.98746128

> <PUBCHEM_TOTAL_CHARGE>
0

> <PUBCHEM_HEAVY_ATOM_COUNT>
20

> <PUBCHEM_ATOM_DEF_STEREO_COUNT>
0

> <PUBCHEM_ATOM_UDEF_STEREO_COUNT>
0

> <PUBCHEM_BOND_DEF_STEREO_COUNT>
0

> <PUBCHEM_BOND_UDEF_STEREO_COUNT>
0

> <PUBCHEM_ISOTOPIC_ATOM_COUNT>
0

> <PUBCHEM_COMPONENT_COUNT>
1

> <PUBCHEM_CACTVS_TAUTO_COUNT>
-1

> <PUBCHEM_COORDINATE_TYPE>
1
5
255

> <PUBCHEM_BONDANNOTATIONS>
1  13  8
1  18  8
12  13  8
12  16  8
13  14  8
14  17  8
15  16  8
15  17  8
9  12  8
9  18  8

$$$$
