49830864
  -OEChem-03202502132D

 23 24  0     0  0  0  0  0  0999 V2000
    5.9674    1.0055    0.0000 O   0  0  0  0  0  0  0  0  0  0  0  0
    4.3211    1.5436    0.0000 O   0  0  0  0  0  0  0  0  0  0  0  0
    3.7320   -0.4560    0.0000 N   0  0  0  0  0  0  0  0  0  0  0  0
    4.6783   -1.7607    0.0000 N   0  0  0  0  0  0  0  0  0  0  0  0
    6.2619   -0.9560    0.0000 N   0  0  0  0  0  0  0  0  0  0  0  0
    4.6783   -0.1513    0.0000 C   0  0  0  0  0  0  0  0  0  0  0  0
    3.7320   -1.4560    0.0000 C   0  0  0  0  0  0  0  0  0  0  0  0
    5.2619   -0.9560    0.0000 C   0  0  0  0  0  0  0  0  0  0  0  0
    2.8660    0.0440    0.0000 C   0  0  0  0  0  0  0  0  0  0  0  0
    2.8660   -1.9560    0.0000 C   0  0  0  0  0  0  0  0  0  0  0  0
    2.0000   -0.4560    0.0000 C   0  0  0  0  0  0  0  0  0  0  0  0
    2.0000   -1.4560    0.0000 C   0  0  0  0  0  0  0  0  0  0  0  0
    4.9889    0.7993    0.0000 C   0  0  0  0  0  0  0  0  0  0  0  0
    6.2781    1.9560    0.0000 C   0  0  0  0  0  0  0  0  0  0  0  0
    2.8660    0.6640    0.0000 H   0  0  0  0  0  0  0  0  0  0  0  0
    2.8660   -2.5760    0.0000 H   0  0  0  0  0  0  0  0  0  0  0  0
    1.4631   -0.1460    0.0000 H   0  0  0  0  0  0  0  0  0  0  0  0
    1.4631   -1.7660    0.0000 H   0  0  0  0  0  0  0  0  0  0  0  0
    6.5719   -1.4929    0.0000 H   0  0  0  0  0  0  0  0  0  0  0  0
    6.5719   -0.4191    0.0000 H   0  0  0  0  0  0  0  0  0  0  0  0
    6.8674    1.7634    0.0000 H   0  0  0  0  0  0  0  0  0  0  0  0
    6.4707    2.5453    0.0000 H   0  0  0  0  0  0  0  0  0  0  0  0
    5.6888    2.1486    0.0000 H   0  0  0  0  0  0  0  0  0  0  0  0
  1 13  1  0  0  0  0
  1 14  1  0  0  0  0
  2 13  2  0  0  0  0
  3  6  1  0  0  0  0
  3  7  1  0  0  0  0
  3  9  1  0  0  0  0
  4  7  2  0  0  0  0
  4  8  1  0  0  0  0
  5  8  1  0  0  0  0
  5 19  1  0  0  0  0
  5 20  1  0  0  0  0
  6  8  2  0  0  0  0
  6 13  1  0  0  0  0
  7 10  1  0  0  0  0
  9 11  2  0  0  0  0
  9 15  1  0  0  0  0
 10 12  2  0  0  0  0
 10 16  1  0  0  0  0
 11 12  1  0  0  0  0
 11 17  1  0  0  0  0
 12 18  1  0  0  0  0
 14 21  1  0  0  0  0
 14 22  1  0  0  0  0
 14 23  1  0  0  0  0
M  END
> <PUBCHEM_COMPOUND_CID>
49830864

> <PUBCHEM_COMPOUND_CANONICALIZED>
1

> <PUBCHEM_CACTVS_COMPLEXITY>
234

> <PUBCHEM_CACTVS_HBOND_ACCEPTOR>
4

> <PUBCHEM_CACTVS_HBOND_DONOR>
1

> <PUBCHEM_CACTVS_ROTATABLE_BOND>
2

> <PUBCHEM_CACTVS_SUBSKEYS>
AAADccBzMAAAAAAAAAAAAAAAAAAAAWAAAAAsAAAAAAAAAFgB4AAAHgAQAAAACAjBlwY/uJ9MHACoATb3bASCgC03EqAJ2CG4fNiKbOrAubmVIIhqgALY6GYQAAAAAAAAAAAAAAAAAAAAAAAAAAAAAAAAAA==

> <PUBCHEM_IUPAC_OPENEYE_NAME>
methyl 2-aminoimidazo[1,2-a]pyridine-3-carboxylate

> <PUBCHEM_IUPAC_CAS_NAME>
2-amino-3-imidazo[1,2-a]pyridinecarboxylic acid methyl ester

> <PUBCHEM_IUPAC_NAME_MARKUP>
methyl 2-aminoimidazo[1,2-a]pyridine-3-carboxylate

> <PUBCHEM_IUPAC_NAME>
methyl 2-aminoimidazo[1,2-a]pyridine-3-carboxylate

> <PUBCHEM_IUPAC_SYSTEMATIC_NAME>
methyl 2-azanylimidazo[1,2-a]pyridine-3-carboxylate

> <PUBCHEM_IUPAC_TRADITIONAL_NAME>
2-aminoimidazo[1,2-a]pyridine-3-carboxylic acid methyl ester

> <PUBCHEM_IUPAC_INCHI>
InChI=1S/C9H9N3O2/c1-14-9(13)7-8(10)11-6-4-2-3-5-12(6)7/h2-5H,10H2,1H3

> <PUBCHEM_IUPAC_INCHIKEY>
HWBWADPFWYTSBY-UHFFFAOYSA-N

> <PUBCHEM_XLOGP3_AA>
2.2

> <PUBCHEM_EXACT_MASS>
191.069476538

> <PUBCHEM_MOLECULAR_FORMULA>
C9H9N3O2

> <PUBCHEM_MOLECULAR_WEIGHT>
191.19

> <PUBCHEM_SMILES>
COC(=O)C1=C(N=C2N1C=CC=C2)N

> <PUBCHEM_OPENEYE_CAN_SMILES>
COC(=O)C1=C(N=C2N1C=CC=C2)N

> <PUBCHEM_OPENEYE_ISO_SMILES>
COC(=O)C1=C(N=C2N1C=CC=C2)N

> <PUBCHEM_CACTVS_TPSA>
69.6

> <PUBCHEM_MONOISOTOPIC_WEIGHT>
191.069476538

> <PUBCHEM_TOTAL_CHARGE>
0

> <PUBCHEM_HEAVY_ATOM_COUNT>
14

> <PUBCHEM_ATOM_DEF_STEREO_COUNT>
0

> <PUBCHEM_ATOM_UDEF_STEREO_COUNT>
0

> <PUBCHEM_BOND_DEF_STEREO_COUNT>
0

> <PUBCHEM_BOND_UDEF_STEREO_COUNT>
0

> <PUBCHEM_ISOTOPIC_ATOM_COUNT>
0

> <PUBCHEM_COMPONENT_COUNT>
1

> <PUBCHEM_CACTVS_TAUTO_COUNT>
-1

> <PUBCHEM_COORDINATE_TYPE>
1
5
255

> <PUBCHEM_BONDANNOTATIONS>
10  12  8
11  12  8
3  6  8
3  7  8
3  9  8
4  7  8
4  8  8
6  8  8
7  10  8
9  11  8

$$$$
