18450918
  -OEChem-03202503182D

 58 61  0     0  0  0  0  0  0999 V2000
    5.6783   -1.1180    0.0000 S   0  0  0  0  0  0  0  0  0  0  0  0
    3.0000   -5.8133    0.0000 S   0  0  0  0  0  0  0  0  0  0  0  0
    8.5673    3.7555    0.0000 O   0  0  0  0  0  0  0  0  0  0  0  0
    2.0000   -5.8133    0.0000 O   0  0  0  0  0  0  0  0  0  0  0  0
    4.0000   -5.8133    0.0000 O   0  0  0  0  0  0  0  0  0  0  0  0
    3.0000    0.1867    0.0000 N   0  0  0  0  0  0  0  0  0  0  0  0
    6.9209    4.2936    0.0000 N   0  0  0  0  0  0  0  0  0  0  0  0
    3.8660    1.6867    0.0000 N   0  0  0  0  0  0  0  0  0  0  0  0
    8.2101    5.4503    0.0000 N   0  0  0  0  0  0  0  0  0  0  0  0
    3.0000   -4.8133    0.0000 N   0  0  0  0  0  0  0  0  0  0  0  0
    5.6783    0.4915    0.0000 C   0  0  0  0  0  0  0  0  0  0  0  0
    4.7320    0.1867    0.0000 C   0  0  0  0  0  0  0  0  0  0  0  0
    5.9889    1.4420    0.0000 C   0  0  0  0  0  0  0  0  0  0  0  0
    4.7320   -0.8133    0.0000 C   0  0  0  0  0  0  0  0  0  0  0  0
    6.2619   -0.3133    0.0000 C   0  0  0  0  0  0  0  0  0  0  0  0
    3.8660    0.6867    0.0000 C   0  0  0  0  0  0  0  0  0  0  0  0
    3.8660   -1.3133    0.0000 C   0  0  0  0  0  0  0  0  0  0  0  0
    5.3211    2.1863    0.0000 C   0  0  0  0  0  0  0  0  0  0  0  0
    6.9674    1.6482    0.0000 C   0  0  0  0  0  0  0  0  0  0  0  0
    6.6103    3.3430    0.0000 C   0  0  0  0  0  0  0  0  0  0  0  0
    5.6318    3.1368    0.0000 C   0  0  0  0  0  0  0  0  0  0  0  0
    7.2781    2.5987    0.0000 C   0  0  0  0  0  0  0  0  0  0  0  0
    3.0000   -0.8133    0.0000 C   0  0  0  0  0  0  0  0  0  0  0  0
    3.8660   -2.3133    0.0000 C   0  0  0  0  0  0  0  0  0  0  0  0
    7.8994    4.4998    0.0000 C   0  0  0  0  0  0  0  0  0  0  0  0
    9.1886    5.6565    0.0000 C   0  0  0  0  0  0  0  0  0  0  0  0
   10.8349    5.1184    0.0000 C   0  0  0  0  0  0  0  0  0  0  0  0
    9.8564    4.9122    0.0000 C   0  0  0  0  0  0  0  0  0  0  0  0
    9.4993    6.6070    0.0000 C   0  0  0  0  0  0  0  0  0  0  0  0
    3.8660   -4.3133    0.0000 C   0  0  0  0  0  0  0  0  0  0  0  0
   11.1456    6.0690    0.0000 C   0  0  0  0  0  0  0  0  0  0  0  0
    3.8660   -3.3133    0.0000 C   0  0  0  0  0  0  0  0  0  0  0  0
   10.4778    6.8133    0.0000 C   0  0  0  0  0  0  0  0  0  0  0  0
   11.5028    4.3741    0.0000 C   0  0  0  0  0  0  0  0  0  0  0  0
    3.0000   -6.8133    0.0000 C   0  0  0  0  0  0  0  0  0  0  0  0
    6.8819   -0.3133    0.0000 H   0  0  0  0  0  0  0  0  0  0  0  0
    4.7144    2.0584    0.0000 H   0  0  0  0  0  0  0  0  0  0  0  0
    7.3815    1.1868    0.0000 H   0  0  0  0  0  0  0  0  0  0  0  0
    5.2177    3.5983    0.0000 H   0  0  0  0  0  0  0  0  0  0  0  0
    7.8848    2.7266    0.0000 H   0  0  0  0  0  0  0  0  0  0  0  0
    2.4631   -1.1233    0.0000 H   0  0  0  0  0  0  0  0  0  0  0  0
    6.5069    4.7550    0.0000 H   0  0  0  0  0  0  0  0  0  0  0  0
    3.3291    1.9967    0.0000 H   0  0  0  0  0  0  0  0  0  0  0  0
    4.4030    1.9967    0.0000 H   0  0  0  0  0  0  0  0  0  0  0  0
    7.7960    5.9118    0.0000 H   0  0  0  0  0  0  0  0  0  0  0  0
    9.6638    4.3229    0.0000 H   0  0  0  0  0  0  0  0  0  0  0  0
    9.0852    7.0685    0.0000 H   0  0  0  0  0  0  0  0  0  0  0  0
    4.0781   -4.8959    0.0000 H   0  0  0  0  0  0  0  0  0  0  0  0
    4.4766   -4.2056    0.0000 H   0  0  0  0  0  0  0  0  0  0  0  0
   11.7523    6.1968    0.0000 H   0  0  0  0  0  0  0  0  0  0  0  0
   10.6704    7.4026    0.0000 H   0  0  0  0  0  0  0  0  0  0  0  0
    2.4631   -4.5033    0.0000 H   0  0  0  0  0  0  0  0  0  0  0  0
   11.0413    3.9601    0.0000 H   0  0  0  0  0  0  0  0  0  0  0  0
   11.9169    3.9127    0.0000 H   0  0  0  0  0  0  0  0  0  0  0  0
   11.9643    4.7882    0.0000 H   0  0  0  0  0  0  0  0  0  0  0  0
    2.3800   -6.8133    0.0000 H   0  0  0  0  0  0  0  0  0  0  0  0
    3.0000   -7.4333    0.0000 H   0  0  0  0  0  0  0  0  0  0  0  0
    3.6200   -6.8133    0.0000 H   0  0  0  0  0  0  0  0  0  0  0  0
  1 14  1  0  0  0  0
  1 15  1  0  0  0  0
  2  4  2  0  0  0  0
  2  5  2  0  0  0  0
  2 10  1  0  0  0  0
  2 35  1  0  0  0  0
  3 25  2  0  0  0  0
  6 16  2  0  0  0  0
  6 23  1  0  0  0  0
  7 20  1  0  0  0  0
  7 25  1  0  0  0  0
  7 42  1  0  0  0  0
  8 16  1  0  0  0  0
  8 43  1  0  0  0  0
  8 44  1  0  0  0  0
  9 25  1  0  0  0  0
  9 26  1  0  0  0  0
  9 45  1  0  0  0  0
 10 30  1  0  0  0  0
 10 52  1  0  0  0  0
 11 12  1  0  0  0  0
 11 13  1  0  0  0  0
 11 15  2  0  0  0  0
 12 14  2  0  0  0  0
 12 16  1  0  0  0  0
 13 18  2  0  0  0  0
 13 19  1  0  0  0  0
 14 17  1  0  0  0  0
 15 36  1  0  0  0  0
 17 23  2  0  0  0  0
 17 24  1  0  0  0  0
 18 21  1  0  0  0  0
 18 37  1  0  0  0  0
 19 22  2  0  0  0  0
 19 38  1  0  0  0  0
 20 21  2  0  0  0  0
 20 22  1  0  0  0  0
 21 39  1  0  0  0  0
 22 40  1  0  0  0  0
 23 41  1  0  0  0  0
 24 32  3  0  0  0  0
 26 28  1  0  0  0  0
 26 29  2  0  0  0  0
 27 28  2  0  0  0  0
 27 31  1  0  0  0  0
 27 34  1  0  0  0  0
 28 46  1  0  0  0  0
 29 33  1  0  0  0  0
 29 47  1  0  0  0  0
 30 32  1  0  0  0  0
 30 48  1  0  0  0  0
 30 49  1  0  0  0  0
 31 33  2  0  0  0  0
 31 50  1  0  0  0  0
 33 51  1  0  0  0  0
 34 53  1  0  0  0  0
 34 54  1  0  0  0  0
 34 55  1  0  0  0  0
 35 56  1  0  0  0  0
 35 57  1  0  0  0  0
 35 58  1  0  0  0  0
M  END
> <PUBCHEM_COMPOUND_CID>
18450918

> <PUBCHEM_COMPOUND_CANONICALIZED>
1

> <PUBCHEM_CACTVS_COMPLEXITY>
903

> <PUBCHEM_CACTVS_HBOND_ACCEPTOR>
7

> <PUBCHEM_CACTVS_HBOND_DONOR>
4

> <PUBCHEM_CACTVS_ROTATABLE_BOND>
6

> <PUBCHEM_CACTVS_SUBSKEYS>
AAADceB7sABgAAAAAAAAAAAAAAAAASAAAAA8YIAAAAAAAFgB/AAAHgQQQAAADAjFWgS/8dLIEArsEjZndHiDgKkxCjAI2LAoZJiIIGLgkZGEIAxolALoyCcQgMAOiAAAQAAAAAAQAACAAAAAAAAAAAAAAA==

> <PUBCHEM_IUPAC_OPENEYE_NAME>
1-[4-[4-amino-7-[3-(methanesulfonamido)prop-1-ynyl]thieno[3,2-c]pyridin-3-yl]phenyl]-3-(m-tolyl)urea

> <PUBCHEM_IUPAC_CAS_NAME>
1-[4-[4-amino-7-[3-(methanesulfonamido)prop-1-ynyl]-3-thieno[3,2-c]pyridinyl]phenyl]-3-(3-methylphenyl)urea

> <PUBCHEM_IUPAC_NAME_MARKUP>
1-[4-[4-amino-7-[3-(methanesulfonamido)prop-1-ynyl]thieno[3,2-c]pyridin-3-yl]phenyl]-3-(3-methylphenyl)urea

> <PUBCHEM_IUPAC_NAME>
1-[4-[4-amino-7-[3-(methanesulfonamido)prop-1-ynyl]thieno[3,2-c]pyridin-3-yl]phenyl]-3-(3-methylphenyl)urea

> <PUBCHEM_IUPAC_SYSTEMATIC_NAME>
1-[4-[4-azanyl-7-[3-(methylsulfonylamino)prop-1-ynyl]thieno[3,2-c]pyridin-3-yl]phenyl]-3-(3-methylphenyl)urea

> <PUBCHEM_IUPAC_TRADITIONAL_NAME>
1-[4-[4-amino-7-[3-(methanesulfonamido)prop-1-ynyl]thieno[3,2-c]pyridin-3-yl]phenyl]-3-(m-tolyl)urea

> <PUBCHEM_IUPAC_INCHI>
InChI=1S/C25H23N5O3S2/c1-16-5-3-7-20(13-16)30-25(31)29-19-10-8-17(9-11-19)21-15-34-23-18(14-27-24(26)22(21)23)6-4-12-28-35(2,32)33/h3,5,7-11,13-15,28H,12H2,1-2H3,(H2,26,27)(H2,29,30,31)

> <PUBCHEM_IUPAC_INCHIKEY>
MQRDVGBWWVWMEN-UHFFFAOYSA-N

> <PUBCHEM_XLOGP3_AA>
3.4

> <PUBCHEM_EXACT_MASS>
505.12423196

> <PUBCHEM_MOLECULAR_FORMULA>
C25H23N5O3S2

> <PUBCHEM_MOLECULAR_WEIGHT>
505.6

> <PUBCHEM_SMILES>
CC1=CC(=CC=C1)NC(=O)NC2=CC=C(C=C2)C3=CSC4=C3C(=NC=C4C#CCNS(=O)(=O)C)N

> <PUBCHEM_OPENEYE_CAN_SMILES>
CC1=CC(=CC=C1)NC(=O)NC2=CC=C(C=C2)C3=CSC4=C3C(=NC=C4C#CCNS(=O)(=O)C)N

> <PUBCHEM_OPENEYE_ISO_SMILES>
CC1=CC(=CC=C1)NC(=O)NC2=CC=C(C=C2)C3=CSC4=C3C(=NC=C4C#CCNS(=O)(=O)C)N

> <PUBCHEM_CACTVS_TPSA>
163

> <PUBCHEM_MONOISOTOPIC_WEIGHT>
505.12423196

> <PUBCHEM_TOTAL_CHARGE>
0

> <PUBCHEM_HEAVY_ATOM_COUNT>
35

> <PUBCHEM_ATOM_DEF_STEREO_COUNT>
0

> <PUBCHEM_ATOM_UDEF_STEREO_COUNT>
0

> <PUBCHEM_BOND_DEF_STEREO_COUNT>
0

> <PUBCHEM_BOND_UDEF_STEREO_COUNT>
0

> <PUBCHEM_ISOTOPIC_ATOM_COUNT>
0

> <PUBCHEM_COMPONENT_COUNT>
1

> <PUBCHEM_CACTVS_TAUTO_COUNT>
-1

> <PUBCHEM_COORDINATE_TYPE>
1
5
255

> <PUBCHEM_BONDANNOTATIONS>
1  14  8
1  15  8
11  12  8
11  15  8
12  14  8
12  16  8
13  18  8
13  19  8
14  17  8
17  23  8
18  21  8
19  22  8
20  21  8
20  22  8
26  28  8
26  29  8
27  28  8
27  31  8
29  33  8
31  33  8
6  16  8
6  23  8

$$$$
