475263
  -OEChem-03202506062D

 40 41  0     1  0  0  0  0  0999 V2000
    5.1350    0.0390    0.0000 O   0  0  0  0  0  0  0  0  0  0  0  0
    4.6350    3.9050    0.0000 O   0  0  0  0  0  0  0  0  0  0  0  0
    6.8671    1.0390    0.0000 O   0  0  0  0  0  0  0  0  0  0  0  0
    3.4030    1.0390    0.0000 O   0  0  0  0  0  0  0  0  0  0  0  0
    6.6350    3.9050    0.0000 O   0  0  0  0  0  0  0  0  0  0  0  0
    5.1350    4.7710    0.0000 O   0  0  0  0  0  0  0  0  0  0  0  0
    3.4030    0.0390    0.0000 O   0  0  0  0  0  0  0  0  0  0  0  0
    6.0010   -3.4610    0.0000 O   0  0  0  0  0  0  0  0  0  0  0  0
    2.5369   -3.4610    0.0000 O   0  0  0  0  0  0  0  0  0  0  0  0
    4.2690   -4.4610    0.0000 O   0  0  0  0  0  0  0  0  0  0  0  0
    5.1350    3.0390    0.0000 C   0  0  0  0  0  0  0  0  0  0  0  0
    5.1350    1.0390    0.0000 C   0  0  0  0  0  0  0  0  0  0  0  0
    6.0010    1.5390    0.0000 C   0  0  1  0  0  0  0  0  0  0  0  0
    4.2690    1.5390    0.0000 C   0  0  1  0  0  0  0  0  0  0  0  0
    6.0010    2.5390    0.0000 C   0  0  0  0  0  0  0  0  0  0  0  0
    4.2690    2.5390    0.0000 C   0  0  0  0  0  0  0  0  0  0  0  0
    5.6350    3.9050    0.0000 C   0  0  0  0  0  0  0  0  0  0  0  0
    4.2690   -0.4610    0.0000 C   0  0  0  0  0  0  0  0  0  0  0  0
    4.2690   -1.4610    0.0000 C   0  0  0  0  0  0  0  0  0  0  0  0
    3.4030   -1.9610    0.0000 C   0  0  0  0  0  0  0  0  0  0  0  0
    5.1350   -1.9610    0.0000 C   0  0  0  0  0  0  0  0  0  0  0  0
    5.1350   -2.9610    0.0000 C   0  0  0  0  0  0  0  0  0  0  0  0
    3.4030   -2.9610    0.0000 C   0  0  0  0  0  0  0  0  0  0  0  0
    4.2690   -3.4610    0.0000 C   0  0  0  0  0  0  0  0  0  0  0  0
    5.6720    0.7290    0.0000 H   0  0  0  0  0  0  0  0  0  0  0  0
    6.5380    1.8490    0.0000 H   0  0  0  0  0  0  0  0  0  0  0  0
    4.2690    0.9190    0.0000 H   0  0  0  0  0  0  0  0  0  0  0  0
    6.6116    2.4313    0.0000 H   0  0  0  0  0  0  0  0  0  0  0  0
    6.2131    3.1216    0.0000 H   0  0  0  0  0  0  0  0  0  0  0  0
    4.0569    3.1216    0.0000 H   0  0  0  0  0  0  0  0  0  0  0  0
    3.6584    2.4313    0.0000 H   0  0  0  0  0  0  0  0  0  0  0  0
    4.0150    3.9050    0.0000 H   0  0  0  0  0  0  0  0  0  0  0  0
    7.4040    1.3490    0.0000 H   0  0  0  0  0  0  0  0  0  0  0  0
    2.8660    1.3490    0.0000 H   0  0  0  0  0  0  0  0  0  0  0  0
    6.9450    4.4419    0.0000 H   0  0  0  0  0  0  0  0  0  0  0  0
    2.8660   -1.6510    0.0000 H   0  0  0  0  0  0  0  0  0  0  0  0
    5.6720   -1.6510    0.0000 H   0  0  0  0  0  0  0  0  0  0  0  0
    6.5380   -3.1510    0.0000 H   0  0  0  0  0  0  0  0  0  0  0  0
    2.0000   -3.1510    0.0000 H   0  0  0  0  0  0  0  0  0  0  0  0
    3.7320   -4.7710    0.0000 H   0  0  0  0  0  0  0  0  0  0  0  0
  1 12  1  0  0  0  0
  1 18  1  0  0  0  0
  2 11  1  0  0  0  0
  2 32  1  0  0  0  0
 13  3  1  1  0  0  0
  3 33  1  0  0  0  0
 14  4  1  6  0  0  0
  4 34  1  0  0  0  0
  5 17  1  0  0  0  0
  5 35  1  0  0  0  0
  6 17  2  0  0  0  0
  7 18  2  0  0  0  0
  8 22  1  0  0  0  0
  8 38  1  0  0  0  0
  9 23  1  0  0  0  0
  9 39  1  0  0  0  0
 10 24  1  0  0  0  0
 10 40  1  0  0  0  0
 11 15  1  0  0  0  0
 11 16  1  0  0  0  0
 11 17  1  0  0  0  0
 12 13  1  0  0  0  0
 12 14  1  0  0  0  0
 12 25  1  0  0  0  0
 13 15  1  0  0  0  0
 13 26  1  0  0  0  0
 14 16  1  0  0  0  0
 14 27  1  0  0  0  0
 15 28  1  0  0  0  0
 15 29  1  0  0  0  0
 16 30  1  0  0  0  0
 16 31  1  0  0  0  0
 18 19  1  0  0  0  0
 19 20  2  0  0  0  0
 19 21  1  0  0  0  0
 20 23  1  0  0  0  0
 20 36  1  0  0  0  0
 21 22  2  0  0  0  0
 21 37  1  0  0  0  0
 22 24  1  0  0  0  0
 23 24  2  0  0  0  0
M  END
> <PUBCHEM_COMPOUND_CID>
475263

> <PUBCHEM_COMPOUND_CANONICALIZED>
1

> <PUBCHEM_CACTVS_COMPLEXITY>
470

> <PUBCHEM_CACTVS_HBOND_ACCEPTOR>
10

> <PUBCHEM_CACTVS_HBOND_DONOR>
7

> <PUBCHEM_CACTVS_ROTATABLE_BOND>
4

> <PUBCHEM_CACTVS_SUBSKEYS>
AAADceBwPAAAAAAAAAAAAAAAAAAAAAAAAAAwYAAAAAAAAAABAAAAGgAACAAADFSgmAIwDoAABgCIAiDSCAICAAAkIAAAiAFGiMgJNzKCNRqCcQElwBULuYfK7DzOIAABCAAAQABCAAIQAACAAAAAAAAAAA==

> <PUBCHEM_IUPAC_OPENEYE_NAME>
(3R,5R)-1,3,5-trihydroxy-4-(3,4,5-trihydroxybenzoyl)oxy-cyclohexanecarboxylic acid

> <PUBCHEM_IUPAC_CAS_NAME>
(3R,5R)-1,3,5-trihydroxy-4-[oxo-(3,4,5-trihydroxyphenyl)methoxy]-1-cyclohexanecarboxylic acid

> <PUBCHEM_IUPAC_NAME_MARKUP>
(3<I>R</I>,5<I>R</I>)-1,3,5-trihydroxy-4-(3,4,5-trihydroxybenzoyl)oxycyclohexane-1-carboxylic acid

> <PUBCHEM_IUPAC_NAME>
(3R,5R)-1,3,5-trihydroxy-4-(3,4,5-trihydroxybenzoyl)oxycyclohexane-1-carboxylic acid

> <PUBCHEM_IUPAC_SYSTEMATIC_NAME>
(3R,5R)-1,3,5-tris(oxidanyl)-4-[3,4,5-tris(oxidanyl)phenyl]carbonyloxy-cyclohexane-1-carboxylic acid

> <PUBCHEM_IUPAC_TRADITIONAL_NAME>
(3R,5R)-4-galloyloxy-1,3,5-trihydroxy-cyclohexanecarboxylic acid

> <PUBCHEM_IUPAC_INCHI>
InChI=1S/C14H16O10/c15-6-1-5(2-7(16)10(6)19)12(20)24-11-8(17)3-14(23,13(21)22)4-9(11)18/h1-2,8-9,11,15-19,23H,3-4H2,(H,21,22)/t8-,9-,11?,14?/m1/s1

> <PUBCHEM_IUPAC_INCHIKEY>
OGYBSNRRBNHPNK-LPSXRXAPSA-N

> <PUBCHEM_XLOGP3_AA>
-1.2

> <PUBCHEM_EXACT_MASS>
344.07434670

> <PUBCHEM_MOLECULAR_FORMULA>
C14H16O10

> <PUBCHEM_MOLECULAR_WEIGHT>
344.27

> <PUBCHEM_SMILES>
C1[C@H](C([C@@H](CC1(C(=O)O)O)O)OC(=O)C2=CC(=C(C(=C2)O)O)O)O

> <PUBCHEM_OPENEYE_CAN_SMILES>
C1C(C(C(CC1(C(=O)O)O)O)OC(=O)C2=CC(=C(C(=C2)O)O)O)O

> <PUBCHEM_OPENEYE_ISO_SMILES>
C1[C@H](C([C@@H](CC1(C(=O)O)O)O)OC(=O)C2=CC(=C(C(=C2)O)O)O)O

> <PUBCHEM_CACTVS_TPSA>
185

> <PUBCHEM_MONOISOTOPIC_WEIGHT>
344.07434670

> <PUBCHEM_TOTAL_CHARGE>
0

> <PUBCHEM_HEAVY_ATOM_COUNT>
24

> <PUBCHEM_ATOM_DEF_STEREO_COUNT>
2

> <PUBCHEM_ATOM_UDEF_STEREO_COUNT>
0

> <PUBCHEM_BOND_DEF_STEREO_COUNT>
0

> <PUBCHEM_BOND_UDEF_STEREO_COUNT>
0

> <PUBCHEM_ISOTOPIC_ATOM_COUNT>
0

> <PUBCHEM_COMPONENT_COUNT>
1

> <PUBCHEM_CACTVS_TAUTO_COUNT>
-1

> <PUBCHEM_COORDINATE_TYPE>
1
5
255

> <PUBCHEM_BONDANNOTATIONS>
19  20  8
19  21  8
20  23  8
21  22  8
22  24  8
23  24  8
13  3  5
14  4  6

$$$$
