49830579
  -OEChem-03202510432D

 82 87  0     1  0  0  0  0  0999 V2000
   19.4282   -1.3434    0.0000 O   0  0  0  0  0  0  0  0  0  0  0  0
   15.0142    2.7207    0.0000 O   0  0  0  0  0  0  0  0  0  0  0  0
    8.5528    4.8643    0.0000 O   0  0  0  0  0  0  0  0  0  0  0  0
    3.9137   -0.9462    0.0000 O   0  0  0  0  0  0  0  0  0  0  0  0
    3.4612    1.0019    0.0000 O   0  0  0  0  0  0  0  0  0  0  0  0
    2.4529   -2.3122    0.0000 O   0  0  0  0  0  0  0  0  0  0  0  0
    2.9054   -4.2603    0.0000 O   0  0  0  0  0  0  0  0  0  0  0  0
   17.9568    0.0113    0.0000 N   0  0  0  0  0  0  0  0  0  0  0  0
    9.4867    1.7726    0.0000 N   0  0  0  0  0  0  0  0  0  0  0  0
    9.9867    3.9633    0.0000 N   0  0  0  0  0  0  0  0  0  0  0  0
   18.9113    0.3097    0.0000 C   0  0  0  0  0  0  0  0  0  0  0  0
   17.7381   -0.9645    0.0000 C   0  0  0  0  0  0  0  0  0  0  0  0
   19.6469   -0.3676    0.0000 C   0  0  0  0  0  0  0  0  0  0  0  0
   18.4737   -1.6418    0.0000 C   0  0  0  0  0  0  0  0  0  0  0  0
   17.2212    0.6887    0.0000 C   0  0  0  0  0  0  0  0  0  0  0  0
   10.3876    2.2065    0.0000 C   0  0  0  0  0  0  0  0  0  0  0  0
   10.6102    3.1814    0.0000 C   0  0  0  0  0  0  0  0  0  0  0  0
   12.3697    2.8012    0.0000 C   0  0  0  0  0  0  0  0  0  0  0  0
    8.5857    2.2065    0.0000 C   0  0  0  0  0  0  0  0  0  0  0  0
   13.3241    3.0996    0.0000 C   0  0  0  0  0  0  0  0  0  0  0  0
   16.2668    0.3902    0.0000 C   0  0  0  0  0  0  0  0  0  0  0  0
   17.4400    1.6644    0.0000 C   0  0  0  0  0  0  0  0  0  0  0  0
    8.3632    3.1815    0.0000 C   0  0  0  0  0  0  0  0  0  0  0  0
   11.6007    3.5038    0.0000 C   0  0  0  0  0  0  0  0  0  0  0  0
   14.0598    2.4223    0.0000 C   0  0  0  0  0  0  0  0  0  0  0  0
   15.7499    2.0434    0.0000 C   0  0  0  0  0  0  0  0  0  0  0  0
    6.8354    1.7857    0.0000 C   0  0  0  0  0  0  0  0  0  0  0  0
   11.1402    1.4863    0.0000 C   0  0  0  0  0  0  0  0  0  0  0  0
   12.1379    1.7857    0.0000 C   0  0  0  0  0  0  0  0  0  0  0  0
    7.8331    1.4864    0.0000 C   0  0  0  0  0  0  0  0  0  0  0  0
   15.5311    1.0676    0.0000 C   0  0  0  0  0  0  0  0  0  0  0  0
   16.7043    2.3418    0.0000 C   0  0  0  0  0  0  0  0  0  0  0  0
    8.9867    3.9633    0.0000 C   0  0  0  0  0  0  0  0  0  0  0  0
    7.3727    3.5038    0.0000 C   0  0  0  0  0  0  0  0  0  0  0  0
    6.1050    1.1027    0.0000 C   0  0  0  0  0  0  0  0  0  0  0  0
    6.6037    2.8012    0.0000 C   0  0  0  0  0  0  0  0  0  0  0  0
    5.1483    1.3938    0.0000 C   0  0  0  0  0  0  0  0  0  0  0  0
    6.3313    0.1287    0.0000 C   0  0  0  0  0  0  0  0  0  0  0  0
    4.4179    0.7108    0.0000 C   0  0  0  0  0  0  0  0  0  0  0  0
    4.6442   -0.2632    0.0000 C   0  0  0  0  0  0  0  0  0  0  0  0
    5.6009   -0.5543    0.0000 C   0  0  0  0  0  0  0  0  0  0  0  0
    4.1400   -1.9203    0.0000 C   0  0  0  0  0  0  0  0  0  0  0  0
    3.4096   -2.6033    0.0000 C   0  0  3  0  0  0  0  0  0  0  0  0
    3.6358   -3.5774    0.0000 C   0  0  0  0  0  0  0  0  0  0  0  0
    3.2349    1.9760    0.0000 C   0  0  0  0  0  0  0  0  0  0  0  0
   19.4041    0.6860    0.0000 H   0  0  0  0  0  0  0  0  0  0  0  0
   18.6263    0.8604    0.0000 H   0  0  0  0  0  0  0  0  0  0  0  0
   17.1658   -0.7258    0.0000 H   0  0  0  0  0  0  0  0  0  0  0  0
   17.4037   -1.4866    0.0000 H   0  0  0  0  0  0  0  0  0  0  0  0
   20.2192   -0.6062    0.0000 H   0  0  0  0  0  0  0  0  0  0  0  0
   19.9813    0.1545    0.0000 H   0  0  0  0  0  0  0  0  0  0  0  0
   17.9810   -2.0181    0.0000 H   0  0  0  0  0  0  0  0  0  0  0  0
   18.7587   -2.1924    0.0000 H   0  0  0  0  0  0  0  0  0  0  0  0
   13.8169    3.4759    0.0000 H   0  0  0  0  0  0  0  0  0  0  0  0
   13.0391    3.6502    0.0000 H   0  0  0  0  0  0  0  0  0  0  0  0
   16.1311   -0.2148    0.0000 H   0  0  0  0  0  0  0  0  0  0  0  0
   18.0317    1.8495    0.0000 H   0  0  0  0  0  0  0  0  0  0  0  0
   11.7316    4.1098    0.0000 H   0  0  0  0  0  0  0  0  0  0  0  0
    9.4867    1.1526    0.0000 H   0  0  0  0  0  0  0  0  0  0  0  0
   13.5670    2.0460    0.0000 H   0  0  0  0  0  0  0  0  0  0  0  0
   14.3447    1.8716    0.0000 H   0  0  0  0  0  0  0  0  0  0  0  0
   10.9952    0.8835    0.0000 H   0  0  0  0  0  0  0  0  0  0  0  0
    7.9781    0.8835    0.0000 H   0  0  0  0  0  0  0  0  0  0  0  0
   12.5907    1.3622    0.0000 H   0  0  0  0  0  0  0  0  0  0  0  0
   10.2557    4.5219    0.0000 H   0  0  0  0  0  0  0  0  0  0  0  0
   14.9393    0.8825    0.0000 H   0  0  0  0  0  0  0  0  0  0  0  0
   16.8399    2.9468    0.0000 H   0  0  0  0  0  0  0  0  0  0  0  0
    7.2417    4.1098    0.0000 H   0  0  0  0  0  0  0  0  0  0  0  0
    6.0119    2.9863    0.0000 H   0  0  0  0  0  0  0  0  0  0  0  0
    5.0080    1.9977    0.0000 H   0  0  0  0  0  0  0  0  0  0  0  0
    6.9244   -0.0518    0.0000 H   0  0  0  0  0  0  0  0  0  0  0  0
    5.7411   -1.1582    0.0000 H   0  0  0  0  0  0  0  0  0  0  0  0
    4.4784   -2.4398    0.0000 H   0  0  0  0  0  0  0  0  0  0  0  0
    4.7104   -1.6773    0.0000 H   0  0  0  0  0  0  0  0  0  0  0  0
    2.9567   -3.0267    0.0000 H   0  0  0  0  0  0  0  0  0  0  0  0
    3.9742   -4.0969    0.0000 H   0  0  0  0  0  0  0  0  0  0  0  0
    4.2062   -3.3343    0.0000 H   0  0  0  0  0  0  0  0  0  0  0  0
    3.8388    2.1162    0.0000 H   0  0  0  0  0  0  0  0  0  0  0  0
    3.0946    2.5799    0.0000 H   0  0  0  0  0  0  0  0  0  0  0  0
    2.6310    1.8357    0.0000 H   0  0  0  0  0  0  0  0  0  0  0  0
    2.0000   -2.7357    0.0000 H   0  0  0  0  0  0  0  0  0  0  0  0
    3.0457   -4.8643    0.0000 H   0  0  0  0  0  0  0  0  0  0  0  0
  1 13  1  0  0  0  0
  1 14  1  0  0  0  0
  2 25  1  0  0  0  0
  2 26  1  0  0  0  0
  3 33  2  0  0  0  0
  4 40  1  0  0  0  0
  4 42  1  0  0  0  0
  5 39  1  0  0  0  0
  5 45  1  0  0  0  0
  6 43  1  0  0  0  0
  6 81  1  0  0  0  0
  7 44  1  0  0  0  0
  7 82  1  0  0  0  0
  8 11  1  0  0  0  0
  8 12  1  0  0  0  0
  8 15  1  0  0  0  0
  9 16  1  0  0  0  0
  9 19  1  0  0  0  0
  9 59  1  0  0  0  0
 10 17  1  0  0  0  0
 10 33  1  0  0  0  0
 10 65  1  0  0  0  0
 11 13  1  0  0  0  0
 11 46  1  0  0  0  0
 11 47  1  0  0  0  0
 12 14  1  0  0  0  0
 12 48  1  0  0  0  0
 12 49  1  0  0  0  0
 13 50  1  0  0  0  0
 13 51  1  0  0  0  0
 14 52  1  0  0  0  0
 14 53  1  0  0  0  0
 15 21  2  0  0  0  0
 15 22  1  0  0  0  0
 16 17  2  0  0  0  0
 16 28  1  0  0  0  0
 17 24  1  0  0  0  0
 18 20  1  0  0  0  0
 18 24  2  0  0  0  0
 18 29  1  0  0  0  0
 19 23  2  0  0  0  0
 19 30  1  0  0  0  0
 20 25  1  0  0  0  0
 20 54  1  0  0  0  0
 20 55  1  0  0  0  0
 21 31  1  0  0  0  0
 21 56  1  0  0  0  0
 22 32  2  0  0  0  0
 22 57  1  0  0  0  0
 23 33  1  0  0  0  0
 23 34  1  0  0  0  0
 24 58  1  0  0  0  0
 25 60  1  0  0  0  0
 25 61  1  0  0  0  0
 26 31  2  0  0  0  0
 26 32  1  0  0  0  0
 27 30  2  0  0  0  0
 27 35  1  0  0  0  0
 27 36  1  0  0  0  0
 28 29  2  0  0  0  0
 28 62  1  0  0  0  0
 29 64  1  0  0  0  0
 30 63  1  0  0  0  0
 31 66  1  0  0  0  0
 32 67  1  0  0  0  0
 34 36  2  0  0  0  0
 34 68  1  0  0  0  0
 35 37  2  0  0  0  0
 35 38  1  0  0  0  0
 36 69  1  0  0  0  0
 37 39  1  0  0  0  0
 37 70  1  0  0  0  0
 38 41  2  0  0  0  0
 38 71  1  0  0  0  0
 39 40  2  0  0  0  0
 40 41  1  0  0  0  0
 41 72  1  0  0  0  0
 42 43  1  0  0  0  0
 42 73  1  0  0  0  0
 42 74  1  0  0  0  0
 43 44  1  0  0  0  0
 43 75  1  0  0  0  0
 44 76  1  0  0  0  0
 44 77  1  0  0  0  0
 45 78  1  0  0  0  0
 45 79  1  0  0  0  0
 45 80  1  0  0  0  0
M  END
> <PUBCHEM_COMPOUND_CID>
49830579

> <PUBCHEM_COMPOUND_CANONICALIZED>
1

> <PUBCHEM_CACTVS_COMPLEXITY>
914

> <PUBCHEM_CACTVS_HBOND_ACCEPTOR>
9

> <PUBCHEM_CACTVS_HBOND_DONOR>
4

> <PUBCHEM_CACTVS_ROTATABLE_BOND>
11

> <PUBCHEM_CACTVS_SUBSKEYS>
AAADcfB/OAAAAAAAAAAAAAAAAAAAAAAAAAA8YMGCBYAAAAABVAAAHgAQCAAADBzhmAYyxoPABgCIAiVSUACCCAAlIgAIiAEO/MgPdnrE9ZuXearl1BHb6ce42POO6EABQAACQCDQgAKAAASAQAAAAAAAAA==

> <PUBCHEM_IUPAC_OPENEYE_NAME>
9-[4-(2,3-dihydroxypropoxy)-3-methoxy-phenyl]-3-[2-(4-morpholinophenoxy)ethyl]-5,11-dihydrobenzo[b][1,4]benzodiazepin-6-one

> <PUBCHEM_IUPAC_CAS_NAME>
9-[4-(2,3-dihydroxypropoxy)-3-methoxyphenyl]-3-[2-[4-(4-morpholinyl)phenoxy]ethyl]-5,11-dihydrobenzo[b][1,4]benzodiazepin-6-one

> <PUBCHEM_IUPAC_NAME_MARKUP>
9-[4-(2,3-dihydroxypropoxy)-3-methoxyphenyl]-3-[2-(4-morpholin-4-ylphenoxy)ethyl]-5,11-dihydrobenzo[b][1,4]benzodiazepin-6-one

> <PUBCHEM_IUPAC_NAME>
9-[4-(2,3-dihydroxypropoxy)-3-methoxyphenyl]-3-[2-(4-morpholin-4-ylphenoxy)ethyl]-5,11-dihydrobenzo[b][1,4]benzodiazepin-6-one

> <PUBCHEM_IUPAC_SYSTEMATIC_NAME>
9-[4-[2,3-bis(oxidanyl)propoxy]-3-methoxy-phenyl]-3-[2-(4-morpholin-4-ylphenoxy)ethyl]-5,11-dihydrobenzo[b][1,4]benzodiazepin-6-one

> <PUBCHEM_IUPAC_TRADITIONAL_NAME>
9-(4-glyceryloxy-3-methoxy-phenyl)-3-[2-(4-morpholinophenoxy)ethyl]-5,11-dihydrobenzo[b][1,4]benzodiazepin-6-one

> <PUBCHEM_IUPAC_INCHI>
InChI=1S/C35H37N3O7/c1-42-34-20-25(4-11-33(34)45-22-27(40)21-39)24-3-9-29-31(19-24)36-30-10-2-23(18-32(30)37-35(29)41)12-15-44-28-7-5-26(6-8-28)38-13-16-43-17-14-38/h2-11,18-20,27,36,39-40H,12-17,21-22H2,1H3,(H,37,41)

> <PUBCHEM_IUPAC_INCHIKEY>
GKYOHKSBYDSKLB-UHFFFAOYSA-N

> <PUBCHEM_XLOGP3_AA>
4.3

> <PUBCHEM_EXACT_MASS>
611.26315053

> <PUBCHEM_MOLECULAR_FORMULA>
C35H37N3O7

> <PUBCHEM_MOLECULAR_WEIGHT>
611.7

> <PUBCHEM_SMILES>
COC1=C(C=CC(=C1)C2=CC3=C(C=C2)C(=O)NC4=C(N3)C=CC(=C4)CCOC5=CC=C(C=C5)N6CCOCC6)OCC(CO)O

> <PUBCHEM_OPENEYE_CAN_SMILES>
COC1=C(C=CC(=C1)C2=CC3=C(C=C2)C(=O)NC4=C(N3)C=CC(=C4)CCOC5=CC=C(C=C5)N6CCOCC6)OCC(CO)O

> <PUBCHEM_OPENEYE_ISO_SMILES>
COC1=C(C=CC(=C1)C2=CC3=C(C=C2)C(=O)NC4=C(N3)C=CC(=C4)CCOC5=CC=C(C=C5)N6CCOCC6)OCC(CO)O

> <PUBCHEM_CACTVS_TPSA>
122

> <PUBCHEM_MONOISOTOPIC_WEIGHT>
611.26315053

> <PUBCHEM_TOTAL_CHARGE>
0

> <PUBCHEM_HEAVY_ATOM_COUNT>
45

> <PUBCHEM_ATOM_DEF_STEREO_COUNT>
0

> <PUBCHEM_ATOM_UDEF_STEREO_COUNT>
1

> <PUBCHEM_BOND_DEF_STEREO_COUNT>
0

> <PUBCHEM_BOND_UDEF_STEREO_COUNT>
0

> <PUBCHEM_ISOTOPIC_ATOM_COUNT>
0

> <PUBCHEM_COMPONENT_COUNT>
1

> <PUBCHEM_CACTVS_TAUTO_COUNT>
-1

> <PUBCHEM_COORDINATE_TYPE>
1
5
255

> <PUBCHEM_BONDANNOTATIONS>
15  21  8
15  22  8
16  17  8
16  28  8
17  24  8
18  24  8
18  29  8
19  23  8
19  30  8
21  31  8
22  32  8
23  34  8
26  31  8
26  32  8
27  30  8
27  36  8
28  29  8
34  36  8
35  37  8
35  38  8
37  39  8
38  41  8
39  40  8
40  41  8
43  6  3

$$$$
