24905183
  -OEChem-03192523372D

 44 47  0     0  0  0  0  0  0999 V2000
    7.2566    2.2707    0.0000 O   0  0  0  0  0  0  0  0  0  0  0  0
    4.6783   -1.6522    0.0000 N   0  0  0  0  0  0  0  0  0  0  0  0
    5.2619   -0.8475    0.0000 N   0  0  0  0  0  0  0  0  0  0  0  0
    2.8660   -1.8475    0.0000 N   0  0  0  0  0  0  0  0  0  0  0  0
    2.0000   -0.3475    0.0000 N   0  0  0  0  0  0  0  0  0  0  0  0
    2.8660    1.1525    0.0000 N   0  0  0  0  0  0  0  0  0  0  0  0
    5.9209    3.7593    0.0000 N   0  0  0  0  0  0  0  0  0  0  0  0
    4.9889   -2.6028    0.0000 C   0  0  0  0  0  0  0  0  0  0  0  0
    4.4026   -3.4128    0.0000 C   0  0  0  0  0  0  0  0  0  0  0  0
    5.9405   -2.9101    0.0000 C   0  0  0  0  0  0  0  0  0  0  0  0
    4.9917   -4.2208    0.0000 C   0  0  0  0  0  0  0  0  0  0  0  0
    5.9422   -3.9101    0.0000 C   0  0  0  0  0  0  0  0  0  0  0  0
    3.7320   -1.3475    0.0000 C   0  0  0  0  0  0  0  0  0  0  0  0
    3.7320   -0.3475    0.0000 C   0  0  0  0  0  0  0  0  0  0  0  0
    4.6783   -0.0428    0.0000 C   0  0  0  0  0  0  0  0  0  0  0  0
    4.9889    0.9078    0.0000 C   0  0  0  0  0  0  0  0  0  0  0  0
    2.8660    0.1525    0.0000 C   0  0  0  0  0  0  0  0  0  0  0  0
    2.0000   -1.3475    0.0000 C   0  0  0  0  0  0  0  0  0  0  0  0
    5.9674    1.1140    0.0000 C   0  0  0  0  0  0  0  0  0  0  0  0
    4.3211    1.6521    0.0000 C   0  0  0  0  0  0  0  0  0  0  0  0
    6.2781    2.0645    0.0000 C   0  0  0  0  0  0  0  0  0  0  0  0
    4.6318    2.6026    0.0000 C   0  0  0  0  0  0  0  0  0  0  0  0
    5.6103    2.8088    0.0000 C   0  0  0  0  0  0  0  0  0  0  0  0
    7.9244    1.5264    0.0000 C   0  0  0  0  0  0  0  0  0  0  0  0
    5.4266   -2.1636    0.0000 H   0  0  0  0  0  0  0  0  0  0  0  0
    3.9411   -2.9987    0.0000 H   0  0  0  0  0  0  0  0  0  0  0  0
    3.9425   -3.8284    0.0000 H   0  0  0  0  0  0  0  0  0  0  0  0
    6.5572   -2.9739    0.0000 H   0  0  0  0  0  0  0  0  0  0  0  0
    6.0684   -2.3035    0.0000 H   0  0  0  0  0  0  0  0  0  0  0  0
    4.4553   -4.5317    0.0000 H   0  0  0  0  0  0  0  0  0  0  0  0
    5.2449   -4.7867    0.0000 H   0  0  0  0  0  0  0  0  0  0  0  0
    6.0722   -4.5164    0.0000 H   0  0  0  0  0  0  0  0  0  0  0  0
    6.5587   -3.8442    0.0000 H   0  0  0  0  0  0  0  0  0  0  0  0
    1.4631   -1.6575    0.0000 H   0  0  0  0  0  0  0  0  0  0  0  0
    6.3815    0.6525    0.0000 H   0  0  0  0  0  0  0  0  0  0  0  0
    3.7144    1.5242    0.0000 H   0  0  0  0  0  0  0  0  0  0  0  0
    2.3291    1.4625    0.0000 H   0  0  0  0  0  0  0  0  0  0  0  0
    3.4030    1.4625    0.0000 H   0  0  0  0  0  0  0  0  0  0  0  0
    4.2177    3.0640    0.0000 H   0  0  0  0  0  0  0  0  0  0  0  0
    5.5069    4.2208    0.0000 H   0  0  0  0  0  0  0  0  0  0  0  0
    6.5276    3.8872    0.0000 H   0  0  0  0  0  0  0  0  0  0  0  0
    7.4630    1.1124    0.0000 H   0  0  0  0  0  0  0  0  0  0  0  0
    8.3385    1.0649    0.0000 H   0  0  0  0  0  0  0  0  0  0  0  0
    8.3859    1.9405    0.0000 H   0  0  0  0  0  0  0  0  0  0  0  0
  1 21  1  0  0  0  0
  1 24  1  0  0  0  0
  2  3  1  0  0  0  0
  2  8  1  0  0  0  0
  2 13  1  0  0  0  0
  3 15  2  0  0  0  0
  4 13  2  0  0  0  0
  4 18  1  0  0  0  0
  5 17  1  0  0  0  0
  5 18  2  0  0  0  0
  6 17  1  0  0  0  0
  6 37  1  0  0  0  0
  6 38  1  0  0  0  0
  7 23  1  0  0  0  0
  7 40  1  0  0  0  0
  7 41  1  0  0  0  0
  8  9  1  0  0  0  0
  8 10  1  0  0  0  0
  8 25  1  0  0  0  0
  9 11  1  0  0  0  0
  9 26  1  0  0  0  0
  9 27  1  0  0  0  0
 10 12  1  0  0  0  0
 10 28  1  0  0  0  0
 10 29  1  0  0  0  0
 11 12  1  0  0  0  0
 11 30  1  0  0  0  0
 11 31  1  0  0  0  0
 12 32  1  0  0  0  0
 12 33  1  0  0  0  0
 13 14  1  0  0  0  0
 14 15  1  0  0  0  0
 14 17  2  0  0  0  0
 15 16  1  0  0  0  0
 16 19  2  0  0  0  0
 16 20  1  0  0  0  0
 18 34  1  0  0  0  0
 19 21  1  0  0  0  0
 19 35  1  0  0  0  0
 20 22  2  0  0  0  0
 20 36  1  0  0  0  0
 21 23  2  0  0  0  0
 22 23  1  0  0  0  0
 22 39  1  0  0  0  0
 24 42  1  0  0  0  0
 24 43  1  0  0  0  0
 24 44  1  0  0  0  0
M  END
> <PUBCHEM_COMPOUND_CID>
24905183

> <PUBCHEM_COMPOUND_CANONICALIZED>
1

> <PUBCHEM_CACTVS_COMPLEXITY>
431

> <PUBCHEM_CACTVS_HBOND_ACCEPTOR>
6

> <PUBCHEM_CACTVS_HBOND_DONOR>
2

> <PUBCHEM_CACTVS_ROTATABLE_BOND>
3

> <PUBCHEM_CACTVS_SUBSKEYS>
AAADceB7oAAAAAAAAAAAAAAAAAAAAeIAAAA8QAAAAAAAAFgB/AAAHgAYAAAADCzBnwY39t5IFACiAyZjZACSjCsxoqAd2CAvbJiOLqLE+duFtChs2BPI6CewwPAOCAABAAAAEAAQAAIAAAAgAAAAAAAAAA==

> <PUBCHEM_IUPAC_OPENEYE_NAME>
3-(4-amino-3-methoxy-phenyl)-1-cyclopentyl-pyrazolo[3,4-d]pyrimidin-4-amine

> <PUBCHEM_IUPAC_CAS_NAME>
3-(4-amino-3-methoxyphenyl)-1-cyclopentyl-4-pyrazolo[3,4-d]pyrimidinamine

> <PUBCHEM_IUPAC_NAME_MARKUP>
3-(4-amino-3-methoxyphenyl)-1-cyclopentylpyrazolo[3,4-d]pyrimidin-4-amine

> <PUBCHEM_IUPAC_NAME>
3-(4-amino-3-methoxyphenyl)-1-cyclopentylpyrazolo[3,4-d]pyrimidin-4-amine

> <PUBCHEM_IUPAC_SYSTEMATIC_NAME>
3-(4-azanyl-3-methoxy-phenyl)-1-cyclopentyl-pyrazolo[3,4-d]pyrimidin-4-amine

> <PUBCHEM_IUPAC_TRADITIONAL_NAME>
[4-(4-amino-1-cyclopentyl-pyrazolo[3,4-d]pyrimidin-3-yl)-2-methoxy-phenyl]amine

> <PUBCHEM_IUPAC_INCHI>
InChI=1S/C17H20N6O/c1-24-13-8-10(6-7-12(13)18)15-14-16(19)20-9-21-17(14)23(22-15)11-4-2-3-5-11/h6-9,11H,2-5,18H2,1H3,(H2,19,20,21)

> <PUBCHEM_IUPAC_INCHIKEY>
ZTQOHJNXDAUMOA-UHFFFAOYSA-N

> <PUBCHEM_XLOGP3_AA>
2

> <PUBCHEM_EXACT_MASS>
324.16985928

> <PUBCHEM_MOLECULAR_FORMULA>
C17H20N6O

> <PUBCHEM_MOLECULAR_WEIGHT>
324.4

> <PUBCHEM_SMILES>
COC1=C(C=CC(=C1)C2=NN(C3=NC=NC(=C23)N)C4CCCC4)N

> <PUBCHEM_OPENEYE_CAN_SMILES>
COC1=C(C=CC(=C1)C2=NN(C3=NC=NC(=C23)N)C4CCCC4)N

> <PUBCHEM_OPENEYE_ISO_SMILES>
COC1=C(C=CC(=C1)C2=NN(C3=NC=NC(=C23)N)C4CCCC4)N

> <PUBCHEM_CACTVS_TPSA>
105

> <PUBCHEM_MONOISOTOPIC_WEIGHT>
324.16985928

> <PUBCHEM_TOTAL_CHARGE>
0

> <PUBCHEM_HEAVY_ATOM_COUNT>
24

> <PUBCHEM_ATOM_DEF_STEREO_COUNT>
0

> <PUBCHEM_ATOM_UDEF_STEREO_COUNT>
0

> <PUBCHEM_BOND_DEF_STEREO_COUNT>
0

> <PUBCHEM_BOND_UDEF_STEREO_COUNT>
0

> <PUBCHEM_ISOTOPIC_ATOM_COUNT>
0

> <PUBCHEM_COMPONENT_COUNT>
1

> <PUBCHEM_CACTVS_TAUTO_COUNT>
-1

> <PUBCHEM_COORDINATE_TYPE>
1
5
255

> <PUBCHEM_BONDANNOTATIONS>
13  14  8
14  15  8
14  17  8
16  19  8
16  20  8
19  21  8
2  13  8
2  3  8
20  22  8
21  23  8
22  23  8
3  15  8
4  13  8
4  18  8
5  17  8
5  18  8

$$$$
