49830747
  -OEChem-03202500552D

 37 39  0     1  0  0  0  0  0999 V2000
    6.3301    1.8656    0.0000 O   0  0  0  0  0  0  0  0  0  0  0  0
    8.2788    3.5680    0.0000 N   0  0  0  0  0  0  0  0  0  0  0  0
    7.1962   -0.6344    0.0000 N   0  0  0  0  0  0  0  0  0  0  0  0
    2.0000   -3.6344    0.0000 N   0  0  0  0  0  0  0  0  0  0  0  0
    7.1962    2.3656    0.0000 C   0  0  3  0  0  0  0  0  0  0  0  0
    8.1097    1.9588    0.0000 C   0  0  0  0  0  0  0  0  0  0  0  0
    7.3007    3.3601    0.0000 C   0  0  0  0  0  0  0  0  0  0  0  0
    8.7788    2.7020    0.0000 C   0  0  0  0  0  0  0  0  0  0  0  0
    6.3301    0.8656    0.0000 C   0  0  0  0  0  0  0  0  0  0  0  0
    5.4641    0.3656    0.0000 C   0  0  0  0  0  0  0  0  0  0  0  0
    7.1962    0.3656    0.0000 C   0  0  0  0  0  0  0  0  0  0  0  0
    5.4641   -0.6344    0.0000 C   0  0  0  0  0  0  0  0  0  0  0  0
    6.3301   -1.1344    0.0000 C   0  0  0  0  0  0  0  0  0  0  0  0
    4.5981   -1.1344    0.0000 C   0  0  0  0  0  0  0  0  0  0  0  0
    4.5981   -2.1344    0.0000 C   0  0  0  0  0  0  0  0  0  0  0  0
    3.7320   -2.6344    0.0000 C   0  0  0  0  0  0  0  0  0  0  0  0
    3.7320   -3.6344    0.0000 C   0  0  0  0  0  0  0  0  0  0  0  0
    2.8660   -2.1344    0.0000 C   0  0  0  0  0  0  0  0  0  0  0  0
    2.8660   -4.1344    0.0000 C   0  0  0  0  0  0  0  0  0  0  0  0
    2.0000   -2.6344    0.0000 C   0  0  0  0  0  0  0  0  0  0  0  0
    6.6762    2.7033    0.0000 H   0  0  0  0  0  0  0  0  0  0  0  0
    7.7997    1.4219    0.0000 H   0  0  0  0  0  0  0  0  0  0  0  0
    8.6113    1.5944    0.0000 H   0  0  0  0  0  0  0  0  0  0  0  0
    7.2359    3.9767    0.0000 H   0  0  0  0  0  0  0  0  0  0  0  0
    6.6807    3.3601    0.0000 H   0  0  0  0  0  0  0  0  0  0  0  0
    9.1937    2.2412    0.0000 H   0  0  0  0  0  0  0  0  0  0  0  0
    9.2804    3.0664    0.0000 H   0  0  0  0  0  0  0  0  0  0  0  0
    8.5310    4.1344    0.0000 H   0  0  0  0  0  0  0  0  0  0  0  0
    4.9272    0.6756    0.0000 H   0  0  0  0  0  0  0  0  0  0  0  0
    7.7331    0.6756    0.0000 H   0  0  0  0  0  0  0  0  0  0  0  0
    6.3301   -1.7544    0.0000 H   0  0  0  0  0  0  0  0  0  0  0  0
    4.0611   -0.8244    0.0000 H   0  0  0  0  0  0  0  0  0  0  0  0
    5.1350   -2.4444    0.0000 H   0  0  0  0  0  0  0  0  0  0  0  0
    4.2690   -3.9444    0.0000 H   0  0  0  0  0  0  0  0  0  0  0  0
    2.8660   -1.5144    0.0000 H   0  0  0  0  0  0  0  0  0  0  0  0
    2.8660   -4.7544    0.0000 H   0  0  0  0  0  0  0  0  0  0  0  0
    1.4631   -2.3244    0.0000 H   0  0  0  0  0  0  0  0  0  0  0  0
  1  5  1  0  0  0  0
  1  9  1  0  0  0  0
  2  7  1  0  0  0  0
  2  8  1  0  0  0  0
  2 28  1  0  0  0  0
  3 11  1  0  0  0  0
  3 13  2  0  0  0  0
  4 19  2  0  0  0  0
  4 20  1  0  0  0  0
  5  6  1  0  0  0  0
  5  7  1  0  0  0  0
  5 21  1  0  0  0  0
  6  8  1  0  0  0  0
  6 22  1  0  0  0  0
  6 23  1  0  0  0  0
  7 24  1  0  0  0  0
  7 25  1  0  0  0  0
  8 26  1  0  0  0  0
  8 27  1  0  0  0  0
  9 10  1  0  0  0  0
  9 11  2  0  0  0  0
 10 12  2  0  0  0  0
 10 29  1  0  0  0  0
 11 30  1  0  0  0  0
 12 13  1  0  0  0  0
 12 14  1  0  0  0  0
 13 31  1  0  0  0  0
 14 15  2  3  0  0  0
 14 32  1  0  0  0  0
 15 16  1  0  0  0  0
 15 33  1  0  0  0  0
 16 17  2  0  0  0  0
 16 18  1  0  0  0  0
 17 19  1  0  0  0  0
 17 34  1  0  0  0  0
 18 20  2  0  0  0  0
 18 35  1  0  0  0  0
 19 36  1  0  0  0  0
 20 37  1  0  0  0  0
M  END
> <PUBCHEM_COMPOUND_CID>
49830747

> <PUBCHEM_COMPOUND_CANONICALIZED>
1

> <PUBCHEM_CACTVS_COMPLEXITY>
315

> <PUBCHEM_CACTVS_HBOND_ACCEPTOR>
4

> <PUBCHEM_CACTVS_HBOND_DONOR>
1

> <PUBCHEM_CACTVS_ROTATABLE_BOND>
4

> <PUBCHEM_CACTVS_SUBSKEYS>
AAADceB7IAAAAAAAAAAAAAAAAAAAAWAAAAAsWAAAAAAAAAAB4AAAHgAQAAAADBThmgY8hpLIFACgAjBnRASCiCAxYiAI2KA/bJgOJuLEsZuHOCjm0BHY6AYwAAAOAAAAAAAAAAAAAAAAAAAAAAAAAAAAAA==

> <PUBCHEM_IUPAC_OPENEYE_NAME>
3-[2-(4-pyridyl)vinyl]-5-pyrrolidin-3-yloxy-pyridine

> <PUBCHEM_IUPAC_CAS_NAME>
3-(2-pyridin-4-ylethenyl)-5-(3-pyrrolidinyloxy)pyridine

> <PUBCHEM_IUPAC_NAME_MARKUP>
3-(2-pyridin-4-ylethenyl)-5-pyrrolidin-3-yloxypyridine

> <PUBCHEM_IUPAC_NAME>
3-(2-pyridin-4-ylethenyl)-5-pyrrolidin-3-yloxypyridine

> <PUBCHEM_IUPAC_SYSTEMATIC_NAME>
3-(2-pyridin-4-ylethenyl)-5-pyrrolidin-3-yloxy-pyridine

> <PUBCHEM_IUPAC_TRADITIONAL_NAME>
3-[2-(4-pyridyl)vinyl]-5-pyrrolidin-3-yloxy-pyridine

> <PUBCHEM_IUPAC_INCHI>
InChI=1S/C16H17N3O/c1(13-3-6-17-7-4-13)2-14-9-16(12-19-10-14)20-15-5-8-18-11-15/h1-4,6-7,9-10,12,15,18H,5,8,11H2

> <PUBCHEM_IUPAC_INCHIKEY>
BEJGILHFZNTYCX-UHFFFAOYSA-N

> <PUBCHEM_XLOGP3_AA>
1.8

> <PUBCHEM_EXACT_MASS>
267.137162174

> <PUBCHEM_MOLECULAR_FORMULA>
C16H17N3O

> <PUBCHEM_MOLECULAR_WEIGHT>
267.33

> <PUBCHEM_SMILES>
C1CNCC1OC2=CN=CC(=C2)C=CC3=CC=NC=C3

> <PUBCHEM_OPENEYE_CAN_SMILES>
C1CNCC1OC2=CN=CC(=C2)C=CC3=CC=NC=C3

> <PUBCHEM_OPENEYE_ISO_SMILES>
C1CNCC1OC2=CN=CC(=C2)C=CC3=CC=NC=C3

> <PUBCHEM_CACTVS_TPSA>
47

> <PUBCHEM_MONOISOTOPIC_WEIGHT>
267.137162174

> <PUBCHEM_TOTAL_CHARGE>
0

> <PUBCHEM_HEAVY_ATOM_COUNT>
20

> <PUBCHEM_ATOM_DEF_STEREO_COUNT>
0

> <PUBCHEM_ATOM_UDEF_STEREO_COUNT>
1

> <PUBCHEM_BOND_DEF_STEREO_COUNT>
0

> <PUBCHEM_BOND_UDEF_STEREO_COUNT>
1

> <PUBCHEM_ISOTOPIC_ATOM_COUNT>
0

> <PUBCHEM_COMPONENT_COUNT>
1

> <PUBCHEM_CACTVS_TAUTO_COUNT>
-1

> <PUBCHEM_COORDINATE_TYPE>
1
5
255

> <PUBCHEM_BONDANNOTATIONS>
5  1  3
10  12  8
12  13  8
14  15  1
16  17  8
16  18  8
17  19  8
18  20  8
3  11  8
3  13  8
4  19  8
4  20  8
9  10  8
9  11  8

$$$$
