49796826
  -OEChem-03202500232D

 57 60  0     0  0  0  0  0  0999 V2000
    5.1823    0.0000    0.0000 Br  0  0  0  0  0  0  0  0  0  0  0  0
    1.9426    7.4816    0.0000 S   0  0  0  0  0  0  0  0  0  0  0  0
    7.0750    3.0444    0.0000 O   0  0  0  0  0  0  0  0  0  0  0  0
    9.9229    5.1134    0.0000 O   0  0  0  0  0  0  0  0  0  0  0  0
    5.1023    6.0617    0.0000 N   0  0  0  0  0  0  0  0  0  0  0  0
    8.6628    3.8534    0.0000 N   0  0  0  0  0  0  0  0  0  0  0  0
    0.3627    8.1916    0.0000 N   0  0  0  0  0  0  0  0  0  0  0  0
    1.7675    9.2048    0.0000 N   0  0  0  0  0  0  0  0  0  0  0  0
    6.4027    5.1134    0.0000 C   0  0  0  0  0  0  0  0  0  0  0  0
    5.5990    4.5284    0.0000 C   0  0  0  0  0  0  0  0  0  0  0  0
    4.7910    5.1176    0.0000 C   0  0  0  0  0  0  0  0  0  0  0  0
    7.3538    4.8044    0.0000 C   0  0  0  0  0  0  0  0  0  0  0  0
    4.5173    6.8728    0.0000 C   0  0  0  0  0  0  0  0  0  0  0  0
    6.0963    6.0591    0.0000 C   0  0  0  0  0  0  0  0  0  0  0  0
    8.1628    5.3922    0.0000 C   0  0  0  0  0  0  0  0  0  0  0  0
    3.5224    6.7717    0.0000 C   0  0  0  0  0  0  0  0  0  0  0  0
    8.1628    6.3922    0.0000 C   0  0  0  0  0  0  0  0  0  0  0  0
    5.4927    3.5341    0.0000 C   0  0  0  0  0  0  0  0  0  0  0  0
    3.8767    4.7125    0.0000 C   0  0  0  0  0  0  0  0  0  0  0  0
    7.6628    3.8534    0.0000 C   0  0  0  0  0  0  0  0  0  0  0  0
    8.9718    4.8044    0.0000 C   0  0  0  0  0  0  0  0  0  0  0  0
    9.0288    6.8922    0.0000 C   0  0  0  0  0  0  0  0  0  0  0  0
    2.9374    7.5827    0.0000 C   0  0  0  0  0  0  0  0  0  0  0  0
    4.5785    3.1290    0.0000 C   0  0  0  0  0  0  0  0  0  0  0  0
    3.7705    3.7181    0.0000 C   0  0  0  0  0  0  0  0  0  0  0  0
    9.0288    7.8922    0.0000 C   0  0  0  0  0  0  0  0  0  0  0  0
    7.2968    6.8922    0.0000 C   0  0  0  0  0  0  0  0  0  0  0  0
    9.9228    6.3576    0.0000 C   0  0  0  0  0  0  0  0  0  0  0  0
    8.1628    8.3922    0.0000 C   0  0  0  0  0  0  0  0  0  0  0  0
    7.2968    7.8922    0.0000 C   0  0  0  0  0  0  0  0  0  0  0  0
    9.9228    8.4269    0.0000 C   0  0  0  0  0  0  0  0  0  0  0  0
   10.8288    6.8714    0.0000 C   0  0  0  0  0  0  0  0  0  0  0  0
   10.8288    7.9130    0.0000 C   0  0  0  0  0  0  0  0  0  0  0  0
    1.3576    8.2927    0.0000 C   0  0  0  0  0  0  0  0  0  0  0  0
    5.0755    7.1426    0.0000 H   0  0  0  0  0  0  0  0  0  0  0  0
    4.3484    7.4693    0.0000 H   0  0  0  0  0  0  0  0  0  0  0  0
    6.4616    6.5601    0.0000 H   0  0  0  0  0  0  0  0  0  0  0  0
    2.9642    6.5018    0.0000 H   0  0  0  0  0  0  0  0  0  0  0  0
    3.6912    6.1751    0.0000 H   0  0  0  0  0  0  0  0  0  0  0  0
    5.9937    3.1688    0.0000 H   0  0  0  0  0  0  0  0  0  0  0  0
    3.3758    5.0778    0.0000 H   0  0  0  0  0  0  0  0  0  0  0  0
    9.0272    3.3518    0.0000 H   0  0  0  0  0  0  0  0  0  0  0  0
    3.4956    7.8526    0.0000 H   0  0  0  0  0  0  0  0  0  0  0  0
    2.7686    8.1793    0.0000 H   0  0  0  0  0  0  0  0  0  0  0  0
    4.5126    2.5125    0.0000 H   0  0  0  0  0  0  0  0  0  0  0  0
    3.2037    3.4669    0.0000 H   0  0  0  0  0  0  0  0  0  0  0  0
    6.7598    6.5822    0.0000 H   0  0  0  0  0  0  0  0  0  0  0  0
    9.9156    5.7376    0.0000 H   0  0  0  0  0  0  0  0  0  0  0  0
    8.1628    9.0122    0.0000 H   0  0  0  0  0  0  0  0  0  0  0  0
    6.7598    8.2022    0.0000 H   0  0  0  0  0  0  0  0  0  0  0  0
    9.9156    9.0468    0.0000 H   0  0  0  0  0  0  0  0  0  0  0  0
   11.3646    6.5593    0.0000 H   0  0  0  0  0  0  0  0  0  0  0  0
   11.3646    8.2251    0.0000 H   0  0  0  0  0  0  0  0  0  0  0  0
    0.0000    8.6944    0.0000 H   0  0  0  0  0  0  0  0  0  0  0  0
    0.1086    7.6261    0.0000 H   0  0  0  0  0  0  0  0  0  0  0  0
    1.4048    9.7077    0.0000 H   0  0  0  0  0  0  0  0  0  0  0  0
    6.1823    0.0000    0.0000 H   0  0  0  0  0  0  0  0  0  0  0  0
  1 57  1  0  0  0  0
  2 23  1  0  0  0  0
  2 34  1  0  0  0  0
  3 20  2  0  0  0  0
  4 21  2  0  0  0  0
  5 11  1  0  0  0  0
  5 13  1  0  0  0  0
  5 14  1  0  0  0  0
  6 20  1  0  0  0  0
  6 21  1  0  0  0  0
  6 42  1  0  0  0  0
  7 34  1  0  0  0  0
  7 54  1  0  0  0  0
  7 55  1  0  0  0  0
  8 34  2  0  0  0  0
  8 56  1  0  0  0  0
  9 10  1  0  0  0  0
  9 12  1  0  0  0  0
  9 14  2  0  0  0  0
 10 11  1  0  0  0  0
 10 18  2  0  0  0  0
 11 19  2  0  0  0  0
 12 15  2  0  0  0  0
 12 20  1  0  0  0  0
 13 16  1  0  0  0  0
 13 35  1  0  0  0  0
 13 36  1  0  0  0  0
 14 37  1  0  0  0  0
 15 17  1  0  0  0  0
 15 21  1  0  0  0  0
 16 23  1  0  0  0  0
 16 38  1  0  0  0  0
 16 39  1  0  0  0  0
 17 22  1  0  0  0  0
 17 27  2  0  0  0  0
 18 24  1  0  0  0  0
 18 40  1  0  0  0  0
 19 25  1  0  0  0  0
 19 41  1  0  0  0  0
 22 26  1  0  0  0  0
 22 28  2  0  0  0  0
 23 43  1  0  0  0  0
 23 44  1  0  0  0  0
 24 25  2  0  0  0  0
 24 45  1  0  0  0  0
 25 46  1  0  0  0  0
 26 29  1  0  0  0  0
 26 31  2  0  0  0  0
 27 30  1  0  0  0  0
 27 47  1  0  0  0  0
 28 32  1  0  0  0  0
 28 48  1  0  0  0  0
 29 30  2  0  0  0  0
 29 49  1  0  0  0  0
 30 50  1  0  0  0  0
 31 33  1  0  0  0  0
 31 51  1  0  0  0  0
 32 33  2  0  0  0  0
 32 52  1  0  0  0  0
 33 53  1  0  0  0  0
M  END
> <PUBCHEM_COMPOUND_CID>
49796826

> <PUBCHEM_COMPOUND_CANONICALIZED>
1

> <PUBCHEM_CACTVS_COMPLEXITY>
827

> <PUBCHEM_CACTVS_HBOND_ACCEPTOR>
4

> <PUBCHEM_CACTVS_HBOND_DONOR>
4

> <PUBCHEM_CACTVS_ROTATABLE_BOND>
7

> <PUBCHEM_CACTVS_SUBSKEYS>
AAADceB7sABAEAAAAAAAAAAAAAAAAWIAAAAwYMAAAAAAAFjB9AAAHgQQAAAADAjF3gS9wPPMEAioAzV3dACCgiDxAjAI2CE4ZNgIIPLglZGEIAhghCDIyQccicCegAACAAASAAAAAAQAACQAAAAAAAAAAA==

> <PUBCHEM_IUPAC_OPENEYE_NAME>
2-[3-[3-[4-(1-naphthyl)-2,5-dioxo-pyrrol-3-yl]indol-1-yl]propyl]isothiourea;hydrobromide

> <PUBCHEM_IUPAC_CAS_NAME>
carbamimidothioic acid 3-[3-[4-(1-naphthalenyl)-2,5-dioxo-3-pyrrolyl]-1-indolyl]propyl ester;hydrobromide

> <PUBCHEM_IUPAC_NAME_MARKUP>
3-[3-(4-naphthalen-1-yl-2,5-dioxopyrrol-3-yl)indol-1-yl]propyl carbamimidothioate;hydrobromide

> <PUBCHEM_IUPAC_NAME>
3-[3-(4-naphthalen-1-yl-2,5-dioxopyrrol-3-yl)indol-1-yl]propyl carbamimidothioate;hydrobromide

> <PUBCHEM_IUPAC_SYSTEMATIC_NAME>
3-[3-[4-naphthalen-1-yl-2,5-bis(oxidanylidene)pyrrol-3-yl]indol-1-yl]propyl carbamimidothioate;hydrobromide

> <PUBCHEM_IUPAC_TRADITIONAL_NAME>
2-[3-[3-[2,5-diketo-4-(1-naphthyl)-3-pyrrolin-3-yl]indol-1-yl]propyl]isothiourea;hydrobromide

> <PUBCHEM_IUPAC_INCHI>
InChI=1S/C26H22N4O2S.BrH/c27-26(28)33-14-6-13-30-15-20(18-10-3-4-12-21(18)30)23-22(24(31)29-25(23)32)19-11-5-8-16-7-1-2-9-17(16)19;/h1-5,7-12,15H,6,13-14H2,(H3,27,28)(H,29,31,32);1H

> <PUBCHEM_IUPAC_INCHIKEY>
NHNFZSVAPDAFRV-UHFFFAOYSA-N

> <PUBCHEM_EXACT_MASS>
534.07251

> <PUBCHEM_MOLECULAR_FORMULA>
C26H23BrN4O2S

> <PUBCHEM_MOLECULAR_WEIGHT>
535.5

> <PUBCHEM_SMILES>
C1=CC=C2C(=C1)C=CC=C2C3=C(C(=O)NC3=O)C4=CN(C5=CC=CC=C54)CCCSC(=N)N.Br

> <PUBCHEM_OPENEYE_CAN_SMILES>
C1=CC=C2C(=C1)C=CC=C2C3=C(C(=O)NC3=O)C4=CN(C5=CC=CC=C54)CCCSC(=N)N.Br

> <PUBCHEM_OPENEYE_ISO_SMILES>
C1=CC=C2C(=C1)C=CC=C2C3=C(C(=O)NC3=O)C4=CN(C5=CC=CC=C54)CCCSC(=N)N.Br

> <PUBCHEM_CACTVS_TPSA>
126

> <PUBCHEM_MONOISOTOPIC_WEIGHT>
534.07251

> <PUBCHEM_TOTAL_CHARGE>
0

> <PUBCHEM_HEAVY_ATOM_COUNT>
34

> <PUBCHEM_ATOM_DEF_STEREO_COUNT>
0

> <PUBCHEM_ATOM_UDEF_STEREO_COUNT>
0

> <PUBCHEM_BOND_DEF_STEREO_COUNT>
0

> <PUBCHEM_BOND_UDEF_STEREO_COUNT>
0

> <PUBCHEM_ISOTOPIC_ATOM_COUNT>
0

> <PUBCHEM_COMPONENT_COUNT>
2

> <PUBCHEM_CACTVS_TAUTO_COUNT>
-1

> <PUBCHEM_COORDINATE_TYPE>
1
5
255

> <PUBCHEM_BONDANNOTATIONS>
10  11  8
10  18  8
11  19  8
17  22  8
17  27  8
18  24  8
19  25  8
22  26  8
22  28  8
24  25  8
26  29  8
26  31  8
27  30  8
28  32  8
29  30  8
31  33  8
32  33  8
5  11  8
5  14  8
9  10  8
9  14  8

$$$$
