49830545
  -OEChem-03202502142D

 34 36  0     0  0  0  0  0  0999 V2000
    2.0000   -0.0530    0.0000 Cl  0  0  0  0  0  0  0  0  0  0  0  0
    2.0000    1.9470    0.0000 Cl  0  0  0  0  0  0  0  0  0  0  0  0
    7.1962   -1.0530    0.0000 O   0  0  0  0  0  0  0  0  0  0  0  0
    8.0622    0.4470    0.0000 N   0  0  0  0  0  0  0  0  0  0  0  0
    6.3301    0.4470    0.0000 N   0  0  0  0  0  0  0  0  0  0  0  0
   11.6065   -1.3577    0.0000 N   0  0  0  0  0  0  0  0  0  0  0  0
   12.1901   -0.5530    0.0000 N   0  0  0  0  0  0  0  0  0  0  0  0
   10.6603   -0.0530    0.0000 C   0  0  0  0  0  0  0  0  0  0  0  0
   10.6603   -1.0530    0.0000 C   0  0  0  0  0  0  0  0  0  0  0  0
    8.9282   -0.0530    0.0000 C   0  0  0  0  0  0  0  0  0  0  0  0
    5.4641   -0.0530    0.0000 C   0  0  0  0  0  0  0  0  0  0  0  0
    9.7942    0.4470    0.0000 C   0  0  0  0  0  0  0  0  0  0  0  0
    4.5981    0.4470    0.0000 C   0  0  0  0  0  0  0  0  0  0  0  0
    9.7942   -1.5530    0.0000 C   0  0  0  0  0  0  0  0  0  0  0  0
    8.9282   -1.0530    0.0000 C   0  0  0  0  0  0  0  0  0  0  0  0
   11.6065    0.2518    0.0000 C   0  0  0  0  0  0  0  0  0  0  0  0
    7.1962   -0.0530    0.0000 C   0  0  0  0  0  0  0  0  0  0  0  0
    3.7320   -0.0530    0.0000 C   0  0  0  0  0  0  0  0  0  0  0  0
    4.5981    1.4470    0.0000 C   0  0  0  0  0  0  0  0  0  0  0  0
    2.8660    0.4470    0.0000 C   0  0  0  0  0  0  0  0  0  0  0  0
    3.7320    1.9470    0.0000 C   0  0  0  0  0  0  0  0  0  0  0  0
    2.8660    1.4470    0.0000 C   0  0  0  0  0  0  0  0  0  0  0  0
    5.0656   -0.5279    0.0000 H   0  0  0  0  0  0  0  0  0  0  0  0
    5.8626   -0.5279    0.0000 H   0  0  0  0  0  0  0  0  0  0  0  0
    9.7942    1.0670    0.0000 H   0  0  0  0  0  0  0  0  0  0  0  0
    9.7942   -2.1730    0.0000 H   0  0  0  0  0  0  0  0  0  0  0  0
    8.3913   -1.3630    0.0000 H   0  0  0  0  0  0  0  0  0  0  0  0
    8.0622    1.0670    0.0000 H   0  0  0  0  0  0  0  0  0  0  0  0
    6.3301    1.0670    0.0000 H   0  0  0  0  0  0  0  0  0  0  0  0
   11.7991    0.8411    0.0000 H   0  0  0  0  0  0  0  0  0  0  0  0
   11.7991   -1.9470    0.0000 H   0  0  0  0  0  0  0  0  0  0  0  0
    3.7320   -0.6730    0.0000 H   0  0  0  0  0  0  0  0  0  0  0  0
    5.1350    1.7570    0.0000 H   0  0  0  0  0  0  0  0  0  0  0  0
    3.7320    2.5670    0.0000 H   0  0  0  0  0  0  0  0  0  0  0  0
  1 20  1  0  0  0  0
  2 22  1  0  0  0  0
  3 17  2  0  0  0  0
  4 10  1  0  0  0  0
  4 17  1  0  0  0  0
  4 28  1  0  0  0  0
  5 11  1  0  0  0  0
  5 17  1  0  0  0  0
  5 29  1  0  0  0  0
  6  7  1  0  0  0  0
  6  9  1  0  0  0  0
  6 31  1  0  0  0  0
  7 16  2  0  0  0  0
  8  9  2  0  0  0  0
  8 12  1  0  0  0  0
  8 16  1  0  0  0  0
  9 14  1  0  0  0  0
 10 12  2  0  0  0  0
 10 15  1  0  0  0  0
 11 13  1  0  0  0  0
 11 23  1  0  0  0  0
 11 24  1  0  0  0  0
 12 25  1  0  0  0  0
 13 18  2  0  0  0  0
 13 19  1  0  0  0  0
 14 15  2  0  0  0  0
 14 26  1  0  0  0  0
 15 27  1  0  0  0  0
 16 30  1  0  0  0  0
 18 20  1  0  0  0  0
 18 32  1  0  0  0  0
 19 21  2  0  0  0  0
 19 33  1  0  0  0  0
 20 22  2  0  0  0  0
 21 22  1  0  0  0  0
 21 34  1  0  0  0  0
M  END
> <PUBCHEM_COMPOUND_CID>
49830545

> <PUBCHEM_COMPOUND_CANONICALIZED>
1

> <PUBCHEM_CACTVS_COMPLEXITY>
398

> <PUBCHEM_CACTVS_HBOND_ACCEPTOR>
2

> <PUBCHEM_CACTVS_HBOND_DONOR>
3

> <PUBCHEM_CACTVS_ROTATABLE_BOND>
3

> <PUBCHEM_CACTVS_SUBSKEYS>
AAADccBzoAAGAAAAAAAAAAAAAAAAAWAAAAAwYAAAAAAAAFgB9AAAHgIYAAAADArBHiQ9wPLjAACqAzRnUACSBAAhhwAYu+A4ZpiIIKLB09GEpAhongJIyCcQgAAOBACAYAACAAQIAQDAAAQACAAAAAAAAA==

> <PUBCHEM_IUPAC_OPENEYE_NAME>
1-[(3,4-dichlorophenyl)methyl]-3-(1H-indazol-5-yl)urea

> <PUBCHEM_IUPAC_CAS_NAME>
1-[(3,4-dichlorophenyl)methyl]-3-(1H-indazol-5-yl)urea

> <PUBCHEM_IUPAC_NAME_MARKUP>
1-[(3,4-dichlorophenyl)methyl]-3-(1<I>H</I>-indazol-5-yl)urea

> <PUBCHEM_IUPAC_NAME>
1-[(3,4-dichlorophenyl)methyl]-3-(1H-indazol-5-yl)urea

> <PUBCHEM_IUPAC_SYSTEMATIC_NAME>
1-[(3,4-dichlorophenyl)methyl]-3-(1H-indazol-5-yl)urea

> <PUBCHEM_IUPAC_TRADITIONAL_NAME>
1-(3,4-dichlorobenzyl)-3-(1H-indazol-5-yl)urea

> <PUBCHEM_IUPAC_INCHI>
InChI=1S/C15H12Cl2N4O/c16-12-3-1-9(5-13(12)17)7-18-15(22)20-11-2-4-14-10(6-11)8-19-21-14/h1-6,8H,7H2,(H,19,21)(H2,18,20,22)

> <PUBCHEM_IUPAC_INCHIKEY>
MTYMWGNJKDHWGN-UHFFFAOYSA-N

> <PUBCHEM_XLOGP3_AA>
3.3

> <PUBCHEM_EXACT_MASS>
334.0388164

> <PUBCHEM_MOLECULAR_FORMULA>
C15H12Cl2N4O

> <PUBCHEM_MOLECULAR_WEIGHT>
335.2

> <PUBCHEM_SMILES>
C1=CC(=C(C=C1CNC(=O)NC2=CC3=C(C=C2)NN=C3)Cl)Cl

> <PUBCHEM_OPENEYE_CAN_SMILES>
C1=CC(=C(C=C1CNC(=O)NC2=CC3=C(C=C2)NN=C3)Cl)Cl

> <PUBCHEM_OPENEYE_ISO_SMILES>
C1=CC(=C(C=C1CNC(=O)NC2=CC3=C(C=C2)NN=C3)Cl)Cl

> <PUBCHEM_CACTVS_TPSA>
69.8

> <PUBCHEM_MONOISOTOPIC_WEIGHT>
334.0388164

> <PUBCHEM_TOTAL_CHARGE>
0

> <PUBCHEM_HEAVY_ATOM_COUNT>
22

> <PUBCHEM_ATOM_DEF_STEREO_COUNT>
0

> <PUBCHEM_ATOM_UDEF_STEREO_COUNT>
0

> <PUBCHEM_BOND_DEF_STEREO_COUNT>
0

> <PUBCHEM_BOND_UDEF_STEREO_COUNT>
0

> <PUBCHEM_ISOTOPIC_ATOM_COUNT>
0

> <PUBCHEM_COMPONENT_COUNT>
1

> <PUBCHEM_CACTVS_TAUTO_COUNT>
-1

> <PUBCHEM_COORDINATE_TYPE>
1
5
255

> <PUBCHEM_BONDANNOTATIONS>
10  12  8
10  15  8
13  18  8
13  19  8
14  15  8
18  20  8
19  21  8
20  22  8
21  22  8
6  7  8
6  9  8
7  16  8
8  12  8
8  16  8
8  9  8
9  14  8

$$$$
