49830712
  -OEChem-03202503062D

 36 39  0     0  0  0  0  0  0999 V2000
    8.3958   -2.2846    0.0000 O   0  0  0  0  0  0  0  0  0  0  0  0
    3.0000    1.4474    0.0000 O   0  0  0  0  0  0  0  0  0  0  0  0
    7.5298    0.2154    0.0000 N   0  0  0  0  0  0  0  0  0  0  0  0
    9.2619   -0.7846    0.0000 N   0  0  0  0  0  0  0  0  0  0  0  0
    7.5298   -0.7846    0.0000 C   0  0  0  0  0  0  0  0  0  0  0  0
    8.3958    0.7154    0.0000 C   0  0  0  0  0  0  0  0  0  0  0  0
    6.0000   -0.2846    0.0000 C   0  0  0  0  0  0  0  0  0  0  0  0
    6.5836    0.5201    0.0000 C   0  0  0  0  0  0  0  0  0  0  0  0
    6.5836   -1.0894    0.0000 C   0  0  0  0  0  0  0  0  0  0  0  0
    9.2619    0.2154    0.0000 C   0  0  0  0  0  0  0  0  0  0  0  0
    8.3958   -1.2846    0.0000 C   0  0  0  0  0  0  0  0  0  0  0  0
    5.0000   -0.2846    0.0000 C   0  0  0  0  0  0  0  0  0  0  0  0
    8.3798    1.7569    0.0000 C   0  0  0  0  0  0  0  0  0  0  0  0
   10.1719    0.7222    0.0000 C   0  0  0  0  0  0  0  0  0  0  0  0
    4.5000    0.5814    0.0000 C   0  0  0  0  0  0  0  0  0  0  0  0
    9.2778    2.2846    0.0000 C   0  0  0  0  0  0  0  0  0  0  0  0
    4.5000   -1.1507    0.0000 C   0  0  0  0  0  0  0  0  0  0  0  0
   10.1799    1.7638    0.0000 C   0  0  0  0  0  0  0  0  0  0  0  0
    3.5000    0.5814    0.0000 C   0  0  0  0  0  0  0  0  0  0  0  0
    3.5000   -1.1507    0.0000 C   0  0  0  0  0  0  0  0  0  0  0  0
    3.0000   -0.2846    0.0000 C   0  0  0  0  0  0  0  0  0  0  0  0
    2.0000    1.4474    0.0000 C   0  0  0  0  0  0  0  0  0  0  0  0
    6.3910    1.1094    0.0000 H   0  0  0  0  0  0  0  0  0  0  0  0
    6.3910   -1.6787    0.0000 H   0  0  0  0  0  0  0  0  0  0  0  0
    9.7988   -1.0946    0.0000 H   0  0  0  0  0  0  0  0  0  0  0  0
    7.8393    2.0606    0.0000 H   0  0  0  0  0  0  0  0  0  0  0  0
   10.7052    0.4060    0.0000 H   0  0  0  0  0  0  0  0  0  0  0  0
    4.8100    1.1183    0.0000 H   0  0  0  0  0  0  0  0  0  0  0  0
    9.2754    2.9046    0.0000 H   0  0  0  0  0  0  0  0  0  0  0  0
    4.8100   -1.6876    0.0000 H   0  0  0  0  0  0  0  0  0  0  0  0
   10.7180    2.0717    0.0000 H   0  0  0  0  0  0  0  0  0  0  0  0
    3.1900   -1.6876    0.0000 H   0  0  0  0  0  0  0  0  0  0  0  0
    2.3800   -0.2846    0.0000 H   0  0  0  0  0  0  0  0  0  0  0  0
    2.0000    2.0674    0.0000 H   0  0  0  0  0  0  0  0  0  0  0  0
    1.3800    1.4474    0.0000 H   0  0  0  0  0  0  0  0  0  0  0  0
    2.0000    0.8274    0.0000 H   0  0  0  0  0  0  0  0  0  0  0  0
  1 11  2  0  0  0  0
  2 19  1  0  0  0  0
  2 22  1  0  0  0  0
  3  5  1  0  0  0  0
  3  6  1  0  0  0  0
  3  8  1  0  0  0  0
  4 10  1  0  0  0  0
  4 11  1  0  0  0  0
  4 25  1  0  0  0  0
  5  9  2  0  0  0  0
  5 11  1  0  0  0  0
  6 10  1  0  0  0  0
  6 13  2  0  0  0  0
  7  8  2  0  0  0  0
  7  9  1  0  0  0  0
  7 12  1  0  0  0  0
  8 23  1  0  0  0  0
  9 24  1  0  0  0  0
 10 14  2  0  0  0  0
 12 15  2  0  0  0  0
 12 17  1  0  0  0  0
 13 16  1  0  0  0  0
 13 26  1  0  0  0  0
 14 18  1  0  0  0  0
 14 27  1  0  0  0  0
 15 19  1  0  0  0  0
 15 28  1  0  0  0  0
 16 18  2  0  0  0  0
 16 29  1  0  0  0  0
 17 20  2  0  0  0  0
 17 30  1  0  0  0  0
 18 31  1  0  0  0  0
 19 21  2  0  0  0  0
 20 21  1  0  0  0  0
 20 32  1  0  0  0  0
 21 33  1  0  0  0  0
 22 34  1  0  0  0  0
 22 35  1  0  0  0  0
 22 36  1  0  0  0  0
M  END
> <PUBCHEM_COMPOUND_CID>
49830712

> <PUBCHEM_COMPOUND_CANONICALIZED>
1

> <PUBCHEM_CACTVS_COMPLEXITY>
427

> <PUBCHEM_CACTVS_HBOND_ACCEPTOR>
2

> <PUBCHEM_CACTVS_HBOND_DONOR>
1

> <PUBCHEM_CACTVS_ROTATABLE_BOND>
2

> <PUBCHEM_CACTVS_SUBSKEYS>
AAADccB7MAAAAAAAAAAAAAAAAAAAAWAAAAA8YIAAAAAAAFix0AAAHgAQAAAADAzBngY+xpPMFACoAzV3VACCiCA3IiAI2CG+fNgMZvLEtbuUMShk1BHI6YeY2fKOgAABAAAAACAAAAIAAAAAQAAAAAAAAA==

> <PUBCHEM_IUPAC_OPENEYE_NAME>
2-(3-methoxyphenyl)-5H-pyrrolo[1,2-a]quinoxalin-4-one

> <PUBCHEM_IUPAC_CAS_NAME>
2-(3-methoxyphenyl)-5H-pyrrolo[1,2-a]quinoxalin-4-one

> <PUBCHEM_IUPAC_NAME_MARKUP>
2-(3-methoxyphenyl)-5<I>H</I>-pyrrolo[1,2-a]quinoxalin-4-one

> <PUBCHEM_IUPAC_NAME>
2-(3-methoxyphenyl)-5H-pyrrolo[1,2-a]quinoxalin-4-one

> <PUBCHEM_IUPAC_SYSTEMATIC_NAME>
2-(3-methoxyphenyl)-5H-pyrrolo[1,2-a]quinoxalin-4-one

> <PUBCHEM_IUPAC_TRADITIONAL_NAME>
2-(3-methoxyphenyl)-5H-pyrrolo[1,2-a]quinoxalin-4-one

> <PUBCHEM_IUPAC_INCHI>
InChI=1S/C18H14N2O2/c1-22-14-6-4-5-12(9-14)13-10-17-18(21)19-15-7-2-3-8-16(15)20(17)11-13/h2-11H,1H3,(H,19,21)

> <PUBCHEM_IUPAC_INCHIKEY>
MQAKXLBEDXFDMV-UHFFFAOYSA-N

> <PUBCHEM_XLOGP3_AA>
3.2

> <PUBCHEM_EXACT_MASS>
290.105527694

> <PUBCHEM_MOLECULAR_FORMULA>
C18H14N2O2

> <PUBCHEM_MOLECULAR_WEIGHT>
290.3

> <PUBCHEM_SMILES>
COC1=CC=CC(=C1)C2=CN3C4=CC=CC=C4NC(=O)C3=C2

> <PUBCHEM_OPENEYE_CAN_SMILES>
COC1=CC=CC(=C1)C2=CN3C4=CC=CC=C4NC(=O)C3=C2

> <PUBCHEM_OPENEYE_ISO_SMILES>
COC1=CC=CC(=C1)C2=CN3C4=CC=CC=C4NC(=O)C3=C2

> <PUBCHEM_CACTVS_TPSA>
43.3

> <PUBCHEM_MONOISOTOPIC_WEIGHT>
290.105527694

> <PUBCHEM_TOTAL_CHARGE>
0

> <PUBCHEM_HEAVY_ATOM_COUNT>
22

> <PUBCHEM_ATOM_DEF_STEREO_COUNT>
0

> <PUBCHEM_ATOM_UDEF_STEREO_COUNT>
0

> <PUBCHEM_BOND_DEF_STEREO_COUNT>
0

> <PUBCHEM_BOND_UDEF_STEREO_COUNT>
0

> <PUBCHEM_ISOTOPIC_ATOM_COUNT>
0

> <PUBCHEM_COMPONENT_COUNT>
1

> <PUBCHEM_CACTVS_TAUTO_COUNT>
-1

> <PUBCHEM_COORDINATE_TYPE>
1
5
255

> <PUBCHEM_BONDANNOTATIONS>
10  14  8
12  15  8
12  17  8
13  16  8
14  18  8
15  19  8
16  18  8
17  20  8
19  21  8
20  21  8
3  5  8
3  6  8
3  8  8
4  10  8
4  11  8
5  11  8
5  9  8
6  10  8
6  13  8
7  8  8
7  9  8

$$$$
