10017019
  -OEChem-03202506242D

 26 28  0     0  0  0  0  0  0999 V2000
    2.0000   -0.6948    0.0000 Br  0  0  0  0  0  0  0  0  0  0  0  0
    5.5443   -2.4996    0.0000 N   0  0  0  0  0  0  0  0  0  0  0  0
    5.1871    0.8047    0.0000 N   0  0  0  0  0  0  0  0  0  0  0  0
    6.4763    1.9615    0.0000 N   0  0  0  0  0  0  0  0  0  0  0  0
    4.8299    2.4996    0.0000 N   0  0  0  0  0  0  0  0  0  0  0  0
    4.5981   -1.1948    0.0000 C   0  0  0  0  0  0  0  0  0  0  0  0
    5.5443   -0.8901    0.0000 C   0  0  0  0  0  0  0  0  0  0  0  0
    4.5981   -2.1948    0.0000 C   0  0  0  0  0  0  0  0  0  0  0  0
    6.1279   -1.6948    0.0000 C   0  0  0  0  0  0  0  0  0  0  0  0
    5.8550    0.0604    0.0000 C   0  0  0  0  0  0  0  0  0  0  0  0
    3.7320   -0.6948    0.0000 C   0  0  0  0  0  0  0  0  0  0  0  0
    3.7320   -2.6948    0.0000 C   0  0  0  0  0  0  0  0  0  0  0  0
    2.8660   -1.1948    0.0000 C   0  0  0  0  0  0  0  0  0  0  0  0
    2.8660   -2.1948    0.0000 C   0  0  0  0  0  0  0  0  0  0  0  0
    6.8335    0.2666    0.0000 C   0  0  0  0  0  0  0  0  0  0  0  0
    7.1441    1.2172    0.0000 C   0  0  0  0  0  0  0  0  0  0  0  0
    5.4978    1.7552    0.0000 C   0  0  0  0  0  0  0  0  0  0  0  0
    6.7479   -1.6948    0.0000 H   0  0  0  0  0  0  0  0  0  0  0  0
    5.7369   -3.0889    0.0000 H   0  0  0  0  0  0  0  0  0  0  0  0
    3.7320   -0.0748    0.0000 H   0  0  0  0  0  0  0  0  0  0  0  0
    3.7320   -3.3148    0.0000 H   0  0  0  0  0  0  0  0  0  0  0  0
    2.3291   -2.5048    0.0000 H   0  0  0  0  0  0  0  0  0  0  0  0
    7.2475   -0.1948    0.0000 H   0  0  0  0  0  0  0  0  0  0  0  0
    7.7508    1.3450    0.0000 H   0  0  0  0  0  0  0  0  0  0  0  0
    5.0225    3.0889    0.0000 H   0  0  0  0  0  0  0  0  0  0  0  0
    4.2233    2.3717    0.0000 H   0  0  0  0  0  0  0  0  0  0  0  0
  1 13  1  0  0  0  0
  2  8  1  0  0  0  0
  2  9  1  0  0  0  0
  2 19  1  0  0  0  0
  3 10  2  0  0  0  0
  3 17  1  0  0  0  0
  4 16  1  0  0  0  0
  4 17  2  0  0  0  0
  5 17  1  0  0  0  0
  5 25  1  0  0  0  0
  5 26  1  0  0  0  0
  6  7  1  0  0  0  0
  6  8  2  0  0  0  0
  6 11  1  0  0  0  0
  7  9  2  0  0  0  0
  7 10  1  0  0  0  0
  8 12  1  0  0  0  0
  9 18  1  0  0  0  0
 10 15  1  0  0  0  0
 11 13  2  0  0  0  0
 11 20  1  0  0  0  0
 12 14  2  0  0  0  0
 12 21  1  0  0  0  0
 13 14  1  0  0  0  0
 14 22  1  0  0  0  0
 15 16  2  0  0  0  0
 15 23  1  0  0  0  0
 16 24  1  0  0  0  0
M  END
> <PUBCHEM_COMPOUND_CID>
10017019

> <PUBCHEM_COMPOUND_CANONICALIZED>
1

> <PUBCHEM_CACTVS_COMPLEXITY>
275

> <PUBCHEM_CACTVS_HBOND_ACCEPTOR>
3

> <PUBCHEM_CACTVS_HBOND_DONOR>
2

> <PUBCHEM_CACTVS_ROTATABLE_BOND>
1

> <PUBCHEM_CACTVS_SUBSKEYS>
AAADccBzgAAAEAAAAAAAAAAAAAAAAWAAAAA8QAAAAAAAAFgB/AAAHABQAAABrAjBHgQ90PbJkACgAzRnZACCgCkxAqQJ2aA4ZLiIKOLA2dGEJAhokALIyjcQgMAOgAAgEAACAAAAAEAgAAQAAAAAAAAAAA==

> <PUBCHEM_IUPAC_OPENEYE_NAME>
4-(5-bromo-1H-indol-3-yl)pyrimidin-2-amine

> <PUBCHEM_IUPAC_CAS_NAME>
4-(5-bromo-1H-indol-3-yl)-2-pyrimidinamine

> <PUBCHEM_IUPAC_NAME_MARKUP>
4-(5-bromo-1<I>H</I>-indol-3-yl)pyrimidin-2-amine

> <PUBCHEM_IUPAC_NAME>
4-(5-bromo-1H-indol-3-yl)pyrimidin-2-amine

> <PUBCHEM_IUPAC_SYSTEMATIC_NAME>
4-(5-bromanyl-1H-indol-3-yl)pyrimidin-2-amine

> <PUBCHEM_IUPAC_TRADITIONAL_NAME>
[4-(5-bromo-1H-indol-3-yl)pyrimidin-2-yl]amine

> <PUBCHEM_IUPAC_INCHI>
InChI=1S/C12H9BrN4/c13-7-1-2-10-8(5-7)9(6-16-10)11-3-4-15-12(14)17-11/h1-6,16H,(H2,14,15,17)

> <PUBCHEM_IUPAC_INCHIKEY>
PKQJCYXKRNGUKQ-UHFFFAOYSA-N

> <PUBCHEM_XLOGP3_AA>
2.3

> <PUBCHEM_EXACT_MASS>
288.00106

> <PUBCHEM_MOLECULAR_FORMULA>
C12H9BrN4

> <PUBCHEM_MOLECULAR_WEIGHT>
289.13

> <PUBCHEM_SMILES>
C1=CC2=C(C=C1Br)C(=CN2)C3=NC(=NC=C3)N

> <PUBCHEM_OPENEYE_CAN_SMILES>
C1=CC2=C(C=C1Br)C(=CN2)C3=NC(=NC=C3)N

> <PUBCHEM_OPENEYE_ISO_SMILES>
C1=CC2=C(C=C1Br)C(=CN2)C3=NC(=NC=C3)N

> <PUBCHEM_CACTVS_TPSA>
67.6

> <PUBCHEM_MONOISOTOPIC_WEIGHT>
288.00106

> <PUBCHEM_TOTAL_CHARGE>
0

> <PUBCHEM_HEAVY_ATOM_COUNT>
17

> <PUBCHEM_ATOM_DEF_STEREO_COUNT>
0

> <PUBCHEM_ATOM_UDEF_STEREO_COUNT>
0

> <PUBCHEM_BOND_DEF_STEREO_COUNT>
0

> <PUBCHEM_BOND_UDEF_STEREO_COUNT>
0

> <PUBCHEM_ISOTOPIC_ATOM_COUNT>
0

> <PUBCHEM_COMPONENT_COUNT>
1

> <PUBCHEM_CACTVS_TAUTO_COUNT>
-1

> <PUBCHEM_COORDINATE_TYPE>
1
5
255

> <PUBCHEM_BONDANNOTATIONS>
10  15  8
11  13  8
12  14  8
13  14  8
15  16  8
2  8  8
2  9  8
3  10  8
3  17  8
4  16  8
4  17  8
6  11  8
6  7  8
6  8  8
7  9  8
8  12  8

$$$$
