9834334
  -OEChem-03202503582D

 16 17  0     0  0  0  0  0  0999 V2000
    2.0000    0.3916    0.0000 Br  0  0  0  0  0  0  0  0  0  0  0  0
    6.1279   -0.6084    0.0000 N   0  0  0  0  0  0  0  0  0  0  0  0
    5.5443   -1.4131    0.0000 N   0  0  0  0  0  0  0  0  0  0  0  0
    3.7320   -1.6084    0.0000 N   0  0  0  0  0  0  0  0  0  0  0  0
    5.8550    1.1469    0.0000 N   0  0  0  0  0  0  0  0  0  0  0  0
    4.5981   -0.1084    0.0000 C   0  0  0  0  0  0  0  0  0  0  0  0
    5.5443    0.1964    0.0000 C   0  0  0  0  0  0  0  0  0  0  0  0
    4.5981   -1.1084    0.0000 C   0  0  0  0  0  0  0  0  0  0  0  0
    3.7320    0.3916    0.0000 C   0  0  0  0  0  0  0  0  0  0  0  0
    2.8660   -0.1084    0.0000 C   0  0  0  0  0  0  0  0  0  0  0  0
    2.8660   -1.1084    0.0000 C   0  0  0  0  0  0  0  0  0  0  0  0
    3.7320    1.0116    0.0000 H   0  0  0  0  0  0  0  0  0  0  0  0
    6.7479   -0.6084    0.0000 H   0  0  0  0  0  0  0  0  0  0  0  0
    2.3291   -1.4184    0.0000 H   0  0  0  0  0  0  0  0  0  0  0  0
    6.4616    1.2748    0.0000 H   0  0  0  0  0  0  0  0  0  0  0  0
    5.4409    1.6084    0.0000 H   0  0  0  0  0  0  0  0  0  0  0  0
  1 10  1  0  0  0  0
  2  3  1  0  0  0  0
  2  7  1  0  0  0  0
  2 13  1  0  0  0  0
  3  8  2  0  0  0  0
  4  8  1  0  0  0  0
  4 11  2  0  0  0  0
  5  7  1  0  0  0  0
  5 15  1  0  0  0  0
  5 16  1  0  0  0  0
  6  7  2  0  0  0  0
  6  8  1  0  0  0  0
  6  9  1  0  0  0  0
  9 10  2  0  0  0  0
  9 12  1  0  0  0  0
 10 11  1  0  0  0  0
 11 14  1  0  0  0  0
M  END
> <PUBCHEM_COMPOUND_CID>
9834334

> <PUBCHEM_COMPOUND_CANONICALIZED>
1

> <PUBCHEM_CACTVS_COMPLEXITY>
154

> <PUBCHEM_CACTVS_HBOND_ACCEPTOR>
3

> <PUBCHEM_CACTVS_HBOND_DONOR>
2

> <PUBCHEM_CACTVS_ROTATABLE_BOND>
0

> <PUBCHEM_CACTVS_SUBSKEYS>
AAADcYBjgAAAEAAAAAAAAAAAAAAAAWAAAAAsAAAAAAAAAFgB+AAAHABYAAABrADBGwQ9sN5rEACiAjJnZACShCuxAKQV+SAoRLiIKOLA2dGEpAhwiALIyjYQAAAMAAAAAAAAAAAAAAAAAAAAAAAAAAAAAA==

> <PUBCHEM_IUPAC_OPENEYE_NAME>
5-bromo-2H-pyrazolo[3,4-b]pyridin-3-amine

> <PUBCHEM_IUPAC_CAS_NAME>
5-bromo-2H-pyrazolo[3,4-b]pyridin-3-amine

> <PUBCHEM_IUPAC_NAME_MARKUP>
5-bromo-2<I>H</I>-pyrazolo[3,4-b]pyridin-3-amine

> <PUBCHEM_IUPAC_NAME>
5-bromo-2H-pyrazolo[3,4-b]pyridin-3-amine

> <PUBCHEM_IUPAC_SYSTEMATIC_NAME>
5-bromanyl-2H-pyrazolo[3,4-b]pyridin-3-amine

> <PUBCHEM_IUPAC_TRADITIONAL_NAME>
(5-bromo-2H-pyrazolo[3,4-b]pyridin-3-yl)amine

> <PUBCHEM_IUPAC_INCHI>
InChI=1S/C6H5BrN4/c7-3-1-4-5(8)10-11-6(4)9-2-3/h1-2H,(H3,8,9,10,11)

> <PUBCHEM_IUPAC_INCHIKEY>
SSNUTEUZXZIYTB-UHFFFAOYSA-N

> <PUBCHEM_XLOGP3_AA>
1.2

> <PUBCHEM_EXACT_MASS>
211.96976

> <PUBCHEM_MOLECULAR_FORMULA>
C6H5BrN4

> <PUBCHEM_MOLECULAR_WEIGHT>
213.03

> <PUBCHEM_SMILES>
C1=C(C=NC2=NNC(=C21)N)Br

> <PUBCHEM_OPENEYE_CAN_SMILES>
C1=C(C=NC2=NNC(=C21)N)Br

> <PUBCHEM_OPENEYE_ISO_SMILES>
C1=C(C=NC2=NNC(=C21)N)Br

> <PUBCHEM_CACTVS_TPSA>
67.6

> <PUBCHEM_MONOISOTOPIC_WEIGHT>
211.96976

> <PUBCHEM_TOTAL_CHARGE>
0

> <PUBCHEM_HEAVY_ATOM_COUNT>
11

> <PUBCHEM_ATOM_DEF_STEREO_COUNT>
0

> <PUBCHEM_ATOM_UDEF_STEREO_COUNT>
0

> <PUBCHEM_BOND_DEF_STEREO_COUNT>
0

> <PUBCHEM_BOND_UDEF_STEREO_COUNT>
0

> <PUBCHEM_ISOTOPIC_ATOM_COUNT>
0

> <PUBCHEM_COMPONENT_COUNT>
1

> <PUBCHEM_CACTVS_TAUTO_COUNT>
-1

> <PUBCHEM_COORDINATE_TYPE>
1
5
255

> <PUBCHEM_BONDANNOTATIONS>
10  11  8
2  3  8
2  7  8
3  8  8
4  11  8
4  8  8
6  7  8
6  8  8
6  9  8
9  10  8

$$$$
