44414322
  -OEChem-03202504432D

 37 41  0     0  0  0  0  0  0999 V2000
   11.4550    0.4166    0.0000 S   0  0  0  0  0  0  0  0  0  0  0  0
    7.8907   -1.7856    0.0000 N   0  0  0  0  0  0  0  0  0  0  0  0
    8.8848   -1.7847    0.0000 N   0  0  0  0  0  0  0  0  0  0  0  0
    3.4044    0.8122    0.0000 N   0  0  0  0  0  0  0  0  0  0  0  0
    2.7406    2.2878    0.0000 N   0  0  0  0  0  0  0  0  0  0  0  0
    8.0810    0.6979    0.0000 C   0  0  0  0  0  0  0  0  0  0  0  0
    8.3901   -0.2531    0.0000 C   0  0  0  0  0  0  0  0  0  0  0  0
    6.7720   -0.2531    0.0000 C   0  0  0  0  0  0  0  0  0  0  0  0
    7.0811    0.6979    0.0000 C   0  0  0  0  0  0  0  0  0  0  0  0
    7.5811   -0.8409    0.0000 C   0  0  0  0  0  0  0  0  0  0  0  0
    9.1928   -0.8395    0.0000 C   0  0  0  0  0  0  0  0  0  0  0  0
    5.7566   -0.4854    0.0000 C   0  0  0  0  0  0  0  0  0  0  0  0
    5.0537    0.2833    0.0000 C   0  0  0  0  0  0  0  0  0  0  0  0
    6.3961    1.4826    0.0000 C   0  0  0  0  0  0  0  0  0  0  0  0
    5.3756    1.2739    0.0000 C   0  0  0  0  0  0  0  0  0  0  0  0
    4.0764    0.0716    0.0000 C   0  0  0  0  0  0  0  0  0  0  0  0
   10.1444   -0.5322    0.0000 C   0  0  0  0  0  0  0  0  0  0  0  0
   10.9524   -1.1214    0.0000 C   0  0  0  0  0  0  0  0  0  0  0  0
   10.4550    0.4184    0.0000 C   0  0  0  0  0  0  0  0  0  0  0  0
    2.4102    0.7038    0.0000 C   0  0  0  0  0  0  0  0  0  0  0  0
    3.6085    1.7911    0.0000 C   0  0  0  0  0  0  0  0  0  0  0  0
   11.7624   -0.5350    0.0000 C   0  0  0  0  0  0  0  0  0  0  0  0
    2.0000    1.6158    0.0000 C   0  0  0  0  0  0  0  0  0  0  0  0
    8.6875    0.8268    0.0000 H   0  0  0  0  0  0  0  0  0  0  0  0
    8.0162    1.3145    0.0000 H   0  0  0  0  0  0  0  0  0  0  0  0
    5.5719   -1.0772    0.0000 H   0  0  0  0  0  0  0  0  0  0  0  0
    6.5945    2.0700    0.0000 H   0  0  0  0  0  0  0  0  0  0  0  0
    7.5271   -2.2878    0.0000 H   0  0  0  0  0  0  0  0  0  0  0  0
    4.9625    1.7363    0.0000 H   0  0  0  0  0  0  0  0  0  0  0  0
    3.5518   -0.2590    0.0000 H   0  0  0  0  0  0  0  0  0  0  0  0
    4.3108   -0.5023    0.0000 H   0  0  0  0  0  0  0  0  0  0  0  0
   10.9513   -1.7414    0.0000 H   0  0  0  0  0  0  0  0  0  0  0  0
   10.0915    0.9206    0.0000 H   0  0  0  0  0  0  0  0  0  0  0  0
    2.1023    0.1657    0.0000 H   0  0  0  0  0  0  0  0  0  0  0  0
    4.1739    2.0455    0.0000 H   0  0  0  0  0  0  0  0  0  0  0  0
   12.3517   -0.7276    0.0000 H   0  0  0  0  0  0  0  0  0  0  0  0
    1.3931    1.7424    0.0000 H   0  0  0  0  0  0  0  0  0  0  0  0
  1 19  1  0  0  0  0
  1 22  1  0  0  0  0
  2  3  1  0  0  0  0
  2 10  1  0  0  0  0
  2 28  1  0  0  0  0
  3 11  2  0  0  0  0
  4 16  1  0  0  0  0
  4 20  1  0  0  0  0
  4 21  1  0  0  0  0
  5 21  2  0  0  0  0
  5 23  1  0  0  0  0
  6  7  1  0  0  0  0
  6  9  1  0  0  0  0
  6 24  1  0  0  0  0
  6 25  1  0  0  0  0
  7 10  2  0  0  0  0
  7 11  1  0  0  0  0
  8  9  2  0  0  0  0
  8 10  1  0  0  0  0
  8 12  1  0  0  0  0
  9 14  1  0  0  0  0
 11 17  1  0  0  0  0
 12 13  2  0  0  0  0
 12 26  1  0  0  0  0
 13 15  1  0  0  0  0
 13 16  1  0  0  0  0
 14 15  2  0  0  0  0
 14 27  1  0  0  0  0
 15 29  1  0  0  0  0
 16 30  1  0  0  0  0
 16 31  1  0  0  0  0
 17 18  1  0  0  0  0
 17 19  2  0  0  0  0
 18 22  2  0  0  0  0
 18 32  1  0  0  0  0
 19 33  1  0  0  0  0
 20 23  2  0  0  0  0
 20 34  1  0  0  0  0
 21 35  1  0  0  0  0
 22 36  1  0  0  0  0
 23 37  1  0  0  0  0
M  END
> <PUBCHEM_COMPOUND_CID>
44414322

> <PUBCHEM_COMPOUND_CANONICALIZED>
1

> <PUBCHEM_CACTVS_COMPLEXITY>
433

> <PUBCHEM_CACTVS_HBOND_ACCEPTOR>
3

> <PUBCHEM_CACTVS_HBOND_DONOR>
1

> <PUBCHEM_CACTVS_ROTATABLE_BOND>
3

> <PUBCHEM_CACTVS_SUBSKEYS>
AAADccB7gABAAAAAAAAAAAAAAAAAAeLEiAAwAAAAAAAWAGAB/AAAHAQYAAAADAjFXgS9kZdvEAimAzRnZACThK0xGrBZ+Tg4dJiIaKKg2dGUpAhoiAKoyCcQgMAOwAACAAAQAACAAAQAACAAASAACQAAAA==

> <PUBCHEM_IUPAC_OPENEYE_NAME>
7-(imidazol-1-ylmethyl)-3-(3-thienyl)-1,4-dihydroindeno[1,2-c]pyrazole

> <PUBCHEM_IUPAC_CAS_NAME>
7-(1-imidazolylmethyl)-3-(3-thiophenyl)-1,4-dihydroindeno[1,2-c]pyrazole

> <PUBCHEM_IUPAC_NAME_MARKUP>
7-(imidazol-1-ylmethyl)-3-thiophen-3-yl-1,4-dihydroindeno[1,2-c]pyrazole

> <PUBCHEM_IUPAC_NAME>
7-(imidazol-1-ylmethyl)-3-thiophen-3-yl-1,4-dihydroindeno[1,2-c]pyrazole

> <PUBCHEM_IUPAC_SYSTEMATIC_NAME>
7-(imidazol-1-ylmethyl)-3-thiophen-3-yl-1,4-dihydroindeno[1,2-c]pyrazole

> <PUBCHEM_IUPAC_TRADITIONAL_NAME>
7-(imidazol-1-ylmethyl)-3-(3-thienyl)-1,4-dihydroindeno[1,2-c]pyrazole

> <PUBCHEM_IUPAC_INCHI>
InChI=1S/C18H14N4S/c1-2-13-8-16-17(14-3-6-23-10-14)20-21-18(16)15(13)7-12(1)9-22-5-4-19-11-22/h1-7,10-11H,8-9H2,(H,20,21)

> <PUBCHEM_IUPAC_INCHIKEY>
AQFXVMZZFFFSCG-UHFFFAOYSA-N

> <PUBCHEM_XLOGP3_AA>
2.9

> <PUBCHEM_EXACT_MASS>
318.09391764

> <PUBCHEM_MOLECULAR_FORMULA>
C18H14N4S

> <PUBCHEM_MOLECULAR_WEIGHT>
318.4

> <PUBCHEM_SMILES>
C1C2=C(C=C(C=C2)CN3C=CN=C3)C4=C1C(=NN4)C5=CSC=C5

> <PUBCHEM_OPENEYE_CAN_SMILES>
C1C2=C(C=C(C=C2)CN3C=CN=C3)C4=C1C(=NN4)C5=CSC=C5

> <PUBCHEM_OPENEYE_ISO_SMILES>
C1C2=C(C=C(C=C2)CN3C=CN=C3)C4=C1C(=NN4)C5=CSC=C5

> <PUBCHEM_CACTVS_TPSA>
74.7

> <PUBCHEM_MONOISOTOPIC_WEIGHT>
318.09391764

> <PUBCHEM_TOTAL_CHARGE>
0

> <PUBCHEM_HEAVY_ATOM_COUNT>
23

> <PUBCHEM_ATOM_DEF_STEREO_COUNT>
0

> <PUBCHEM_ATOM_UDEF_STEREO_COUNT>
0

> <PUBCHEM_BOND_DEF_STEREO_COUNT>
0

> <PUBCHEM_BOND_UDEF_STEREO_COUNT>
0

> <PUBCHEM_ISOTOPIC_ATOM_COUNT>
0

> <PUBCHEM_COMPONENT_COUNT>
1

> <PUBCHEM_CACTVS_TAUTO_COUNT>
-1

> <PUBCHEM_COORDINATE_TYPE>
1
5
255

> <PUBCHEM_BONDANNOTATIONS>
1  19  8
1  22  8
12  13  8
13  15  8
14  15  8
17  18  8
17  19  8
18  22  8
2  10  8
2  3  8
20  23  8
3  11  8
4  20  8
4  21  8
5  21  8
5  23  8
7  10  8
7  11  8
8  12  8
8  9  8
9  14  8

$$$$
