24770517
  -OEChem-03202506432D

 46 49  0     0  0  0  0  0  0999 V2000
    2.8660    2.0000    0.0000 O   0  0  0  0  0  0  0  0  0  0  0  0
    4.5981    3.0000    0.0000 O   0  0  0  0  0  0  0  0  0  0  0  0
    6.3301   -1.0000    0.0000 N   0  0  0  0  0  0  0  0  0  0  0  0
    9.8744   -2.8047    0.0000 N   0  0  0  0  0  0  0  0  0  0  0  0
    3.7320   -2.5000    0.0000 N   0  0  0  0  0  0  0  0  0  0  0  0
    7.1962   -3.5000    0.0000 N   0  0  0  0  0  0  0  0  0  0  0  0
    8.9282   -1.5000    0.0000 C   0  0  0  0  0  0  0  0  0  0  0  0
    7.1962   -1.5000    0.0000 C   0  0  0  0  0  0  0  0  0  0  0  0
    5.4641   -1.5000    0.0000 C   0  0  0  0  0  0  0  0  0  0  0  0
    8.9282   -2.5000    0.0000 C   0  0  0  0  0  0  0  0  0  0  0  0
    4.5981   -1.0000    0.0000 C   0  0  0  0  0  0  0  0  0  0  0  0
    8.0622   -1.0000    0.0000 C   0  0  0  0  0  0  0  0  0  0  0  0
    4.5981    0.0000    0.0000 C   0  0  0  0  0  0  0  0  0  0  0  0
    7.1962   -2.5000    0.0000 C   0  0  0  0  0  0  0  0  0  0  0  0
    8.0622   -3.0000    0.0000 C   0  0  0  0  0  0  0  0  0  0  0  0
    9.8744   -1.1953    0.0000 C   0  0  0  0  0  0  0  0  0  0  0  0
    5.4641   -2.5000    0.0000 C   0  0  0  0  0  0  0  0  0  0  0  0
    3.7320    0.5000    0.0000 C   0  0  0  0  0  0  0  0  0  0  0  0
   10.4580   -2.0000    0.0000 C   0  0  0  0  0  0  0  0  0  0  0  0
    5.4641    0.5000    0.0000 C   0  0  0  0  0  0  0  0  0  0  0  0
    3.7320   -1.5000    0.0000 C   0  0  0  0  0  0  0  0  0  0  0  0
    3.7320    1.5000    0.0000 C   0  0  0  0  0  0  0  0  0  0  0  0
    4.5981    2.0000    0.0000 C   0  0  0  0  0  0  0  0  0  0  0  0
    5.4641    1.5000    0.0000 C   0  0  0  0  0  0  0  0  0  0  0  0
    4.5981   -3.0000    0.0000 C   0  0  0  0  0  0  0  0  0  0  0  0
    6.3301   -3.0000    0.0000 C   0  0  0  0  0  0  0  0  0  0  0  0
    2.0000    1.5000    0.0000 C   0  0  0  0  0  0  0  0  0  0  0  0
    5.4641    3.5000    0.0000 C   0  0  0  0  0  0  0  0  0  0  0  0
    8.0622   -0.3800    0.0000 H   0  0  0  0  0  0  0  0  0  0  0  0
    6.3301   -0.3800    0.0000 H   0  0  0  0  0  0  0  0  0  0  0  0
    6.6592   -2.8100    0.0000 H   0  0  0  0  0  0  0  0  0  0  0  0
    8.0622   -3.6200    0.0000 H   0  0  0  0  0  0  0  0  0  0  0  0
   10.0670   -0.6059    0.0000 H   0  0  0  0  0  0  0  0  0  0  0  0
   10.0670   -3.3940    0.0000 H   0  0  0  0  0  0  0  0  0  0  0  0
    3.1951    0.1900    0.0000 H   0  0  0  0  0  0  0  0  0  0  0  0
   11.0780   -2.0000    0.0000 H   0  0  0  0  0  0  0  0  0  0  0  0
    6.0010    0.1900    0.0000 H   0  0  0  0  0  0  0  0  0  0  0  0
    3.1951   -1.1900    0.0000 H   0  0  0  0  0  0  0  0  0  0  0  0
    6.0010    1.8100    0.0000 H   0  0  0  0  0  0  0  0  0  0  0  0
    4.5981   -3.6200    0.0000 H   0  0  0  0  0  0  0  0  0  0  0  0
    1.6900    2.0369    0.0000 H   0  0  0  0  0  0  0  0  0  0  0  0
    1.4631    1.1900    0.0000 H   0  0  0  0  0  0  0  0  0  0  0  0
    2.3100    0.9631    0.0000 H   0  0  0  0  0  0  0  0  0  0  0  0
    5.7741    2.9631    0.0000 H   0  0  0  0  0  0  0  0  0  0  0  0
    6.0010    3.8100    0.0000 H   0  0  0  0  0  0  0  0  0  0  0  0
    5.1541    4.0369    0.0000 H   0  0  0  0  0  0  0  0  0  0  0  0
  1 22  1  0  0  0  0
  1 27  1  0  0  0  0
  2 23  1  0  0  0  0
  2 28  1  0  0  0  0
  3  8  1  0  0  0  0
  3  9  1  0  0  0  0
  3 30  1  0  0  0  0
  4 10  1  0  0  0  0
  4 19  1  0  0  0  0
  4 34  1  0  0  0  0
  5 21  2  0  0  0  0
  5 25  1  0  0  0  0
  6 26  3  0  0  0  0
  7 10  2  0  0  0  0
  7 12  1  0  0  0  0
  7 16  1  0  0  0  0
  8 12  2  0  0  0  0
  8 14  1  0  0  0  0
  9 11  2  0  0  0  0
  9 17  1  0  0  0  0
 10 15  1  0  0  0  0
 11 13  1  0  0  0  0
 11 21  1  0  0  0  0
 12 29  1  0  0  0  0
 13 18  2  0  0  0  0
 13 20  1  0  0  0  0
 14 15  2  0  0  0  0
 14 31  1  0  0  0  0
 15 32  1  0  0  0  0
 16 19  2  0  0  0  0
 16 33  1  0  0  0  0
 17 25  2  0  0  0  0
 17 26  1  0  0  0  0
 18 22  1  0  0  0  0
 18 35  1  0  0  0  0
 19 36  1  0  0  0  0
 20 24  2  0  0  0  0
 20 37  1  0  0  0  0
 21 38  1  0  0  0  0
 22 23  2  0  0  0  0
 23 24  1  0  0  0  0
 24 39  1  0  0  0  0
 25 40  1  0  0  0  0
 27 41  1  0  0  0  0
 27 42  1  0  0  0  0
 27 43  1  0  0  0  0
 28 44  1  0  0  0  0
 28 45  1  0  0  0  0
 28 46  1  0  0  0  0
M  END
> <PUBCHEM_COMPOUND_CID>
24770517

> <PUBCHEM_COMPOUND_CANONICALIZED>
1

> <PUBCHEM_CACTVS_COMPLEXITY>
564

> <PUBCHEM_CACTVS_HBOND_ACCEPTOR>
5

> <PUBCHEM_CACTVS_HBOND_DONOR>
2

> <PUBCHEM_CACTVS_ROTATABLE_BOND>
5

> <PUBCHEM_CACTVS_SUBSKEYS>
AAADceB7sAAAAAAAAAAAAAAAAAAAAWAAAAA8YIAAAAAAAFgB/AAAHgAQAAAADAzBngY+xvLJlACwBzRnRACiiCAxIiAI2aA+7JgNpuLE8duENCpk0BHK6A+Q0PMOoACBQAACQABAAQKAAASAAAAAAAAAAA==

> <PUBCHEM_IUPAC_OPENEYE_NAME>
5-(3,4-dimethoxyphenyl)-4-(1H-indol-5-ylamino)pyridine-3-carbonitrile

> <PUBCHEM_IUPAC_CAS_NAME>
5-(3,4-dimethoxyphenyl)-4-(1H-indol-5-ylamino)-3-pyridinecarbonitrile

> <PUBCHEM_IUPAC_NAME_MARKUP>
5-(3,4-dimethoxyphenyl)-4-(1<I>H</I>-indol-5-ylamino)pyridine-3-carbonitrile

> <PUBCHEM_IUPAC_NAME>
5-(3,4-dimethoxyphenyl)-4-(1H-indol-5-ylamino)pyridine-3-carbonitrile

> <PUBCHEM_IUPAC_SYSTEMATIC_NAME>
5-(3,4-dimethoxyphenyl)-4-(1H-indol-5-ylamino)pyridine-3-carbonitrile

> <PUBCHEM_IUPAC_TRADITIONAL_NAME>
5-(3,4-dimethoxyphenyl)-4-(1H-indol-5-ylamino)nicotinonitrile

> <PUBCHEM_IUPAC_INCHI>
InChI=1S/C22H18N4O2/c1-27-20-6-3-14(10-21(20)28-2)18-13-24-12-16(11-23)22(18)26-17-4-5-19-15(9-17)7-8-25-19/h3-10,12-13,25H,1-2H3,(H,24,26)

> <PUBCHEM_IUPAC_INCHIKEY>
KPDRLZMGHJWHQC-UHFFFAOYSA-N

> <PUBCHEM_XLOGP3_AA>
4.4

> <PUBCHEM_EXACT_MASS>
370.14297583

> <PUBCHEM_MOLECULAR_FORMULA>
C22H18N4O2

> <PUBCHEM_MOLECULAR_WEIGHT>
370.4

> <PUBCHEM_SMILES>
COC1=C(C=C(C=C1)C2=C(C(=CN=C2)C#N)NC3=CC4=C(C=C3)NC=C4)OC

> <PUBCHEM_OPENEYE_CAN_SMILES>
COC1=C(C=C(C=C1)C2=C(C(=CN=C2)C#N)NC3=CC4=C(C=C3)NC=C4)OC

> <PUBCHEM_OPENEYE_ISO_SMILES>
COC1=C(C=C(C=C1)C2=C(C(=CN=C2)C#N)NC3=CC4=C(C=C3)NC=C4)OC

> <PUBCHEM_CACTVS_TPSA>
83

> <PUBCHEM_MONOISOTOPIC_WEIGHT>
370.14297583

> <PUBCHEM_TOTAL_CHARGE>
0

> <PUBCHEM_HEAVY_ATOM_COUNT>
28

> <PUBCHEM_ATOM_DEF_STEREO_COUNT>
0

> <PUBCHEM_ATOM_UDEF_STEREO_COUNT>
0

> <PUBCHEM_BOND_DEF_STEREO_COUNT>
0

> <PUBCHEM_BOND_UDEF_STEREO_COUNT>
0

> <PUBCHEM_ISOTOPIC_ATOM_COUNT>
0

> <PUBCHEM_COMPONENT_COUNT>
1

> <PUBCHEM_CACTVS_TAUTO_COUNT>
-1

> <PUBCHEM_COORDINATE_TYPE>
1
5
255

> <PUBCHEM_BONDANNOTATIONS>
10  15  8
11  21  8
13  18  8
13  20  8
14  15  8
16  19  8
17  25  8
18  22  8
20  24  8
22  23  8
23  24  8
4  10  8
4  19  8
5  21  8
5  25  8
7  10  8
7  12  8
7  16  8
8  12  8
8  14  8
9  11  8
9  17  8

$$$$
