24905149
  -OEChem-03192523412D

 60 65  0     0  0  0  0  0  0999 V2000
    4.6660   -4.4870    0.0000 O   0  0  0  0  0  0  0  0  0  0  0  0
    5.5241    4.4867    0.0000 O   0  0  0  0  0  0  0  0  0  0  0  0
    5.5321   -2.9870    0.0000 N   0  0  0  0  0  0  0  0  0  0  0  0
    6.3981   -0.4870    0.0000 N   0  0  0  0  0  0  0  0  0  0  0  0
    4.6660   -1.4870    0.0000 N   0  0  0  0  0  0  0  0  0  0  0  0
    5.5934    0.0966    0.0000 N   0  0  0  0  0  0  0  0  0  0  0  0
    8.1813   -0.1096    0.0000 N   0  0  0  0  0  0  0  0  0  0  0  0
    8.5385    1.5852    0.0000 N   0  0  0  0  0  0  0  0  0  0  0  0
    7.2493    2.7420    0.0000 N   0  0  0  0  0  0  0  0  0  0  0  0
    6.3981   -1.4870    0.0000 C   0  0  0  0  0  0  0  0  0  0  0  0
    5.5321   -1.9870    0.0000 C   0  0  0  0  0  0  0  0  0  0  0  0
    3.8000   -2.9870    0.0000 C   0  0  0  0  0  0  0  0  0  0  0  0
    7.2028    0.0966    0.0000 C   0  0  0  0  0  0  0  0  0  0  0  0
    4.6660   -3.4870    0.0000 C   0  0  0  0  0  0  0  0  0  0  0  0
    6.3981   -3.4870    0.0000 C   0  0  0  0  0  0  0  0  0  0  0  0
    6.8922    1.0471    0.0000 C   0  0  0  0  0  0  0  0  0  0  0  0
    3.8000   -1.9870    0.0000 C   0  0  0  0  0  0  0  0  0  0  0  0
    5.8981    1.0428    0.0000 C   0  0  0  0  0  0  0  0  0  0  0  0
    2.9061   -3.5217    0.0000 C   0  0  0  0  0  0  0  0  0  0  0  0
    6.3981   -4.4870    0.0000 C   0  0  0  0  0  0  0  0  0  0  0  0
    5.3075    1.8498    0.0000 C   0  0  0  0  0  0  0  0  0  0  0  0
    2.9061   -1.4523    0.0000 C   0  0  0  0  0  0  0  0  0  0  0  0
    7.5600    1.7914    0.0000 C   0  0  0  0  0  0  0  0  0  0  0  0
    7.2641   -2.9870    0.0000 C   0  0  0  0  0  0  0  0  0  0  0  0
    2.0000   -3.0078    0.0000 C   0  0  0  0  0  0  0  0  0  0  0  0
    2.0000   -1.9662    0.0000 C   0  0  0  0  0  0  0  0  0  0  0  0
    2.9176   -4.5216    0.0000 C   0  0  0  0  0  0  0  0  0  0  0  0
    7.2641   -4.9870    0.0000 C   0  0  0  0  0  0  0  0  0  0  0  0
    5.5321   -4.9870    0.0000 C   0  0  0  0  0  0  0  0  0  0  0  0
    8.1301   -3.4870    0.0000 C   0  0  0  0  0  0  0  0  0  0  0  0
    5.7111    2.7648    0.0000 C   0  0  0  0  0  0  0  0  0  0  0  0
    4.3134    1.7418    0.0000 C   0  0  0  0  0  0  0  0  0  0  0  0
    8.1301   -4.4870    0.0000 C   0  0  0  0  0  0  0  0  0  0  0  0
    8.8492    0.6347    0.0000 C   0  0  0  0  0  0  0  0  0  0  0  0
    5.1205    3.5717    0.0000 C   0  0  0  0  0  0  0  0  0  0  0  0
    3.7228    2.5488    0.0000 C   0  0  0  0  0  0  0  0  0  0  0  0
    4.1263    3.4638    0.0000 C   0  0  0  0  0  0  0  0  0  0  0  0
    6.6101   -2.0696    0.0000 H   0  0  0  0  0  0  0  0  0  0  0  0
    7.0087   -1.3793    0.0000 H   0  0  0  0  0  0  0  0  0  0  0  0
    2.9132   -0.8324    0.0000 H   0  0  0  0  0  0  0  0  0  0  0  0
    7.2641   -2.3670    0.0000 H   0  0  0  0  0  0  0  0  0  0  0  0
    1.4643   -3.3199    0.0000 H   0  0  0  0  0  0  0  0  0  0  0  0
    1.4643   -1.6541    0.0000 H   0  0  0  0  0  0  0  0  0  0  0  0
    2.2977   -4.5288    0.0000 H   0  0  0  0  0  0  0  0  0  0  0  0
    2.9248   -5.1416    0.0000 H   0  0  0  0  0  0  0  0  0  0  0  0
    3.5376   -4.5144    0.0000 H   0  0  0  0  0  0  0  0  0  0  0  0
    7.2641   -5.6070    0.0000 H   0  0  0  0  0  0  0  0  0  0  0  0
    5.2221   -4.4501    0.0000 H   0  0  0  0  0  0  0  0  0  0  0  0
    4.9951   -5.2970    0.0000 H   0  0  0  0  0  0  0  0  0  0  0  0
    5.8421   -5.5239    0.0000 H   0  0  0  0  0  0  0  0  0  0  0  0
    8.6671   -3.1770    0.0000 H   0  0  0  0  0  0  0  0  0  0  0  0
    6.3274    2.8317    0.0000 H   0  0  0  0  0  0  0  0  0  0  0  0
    4.0631    1.1746    0.0000 H   0  0  0  0  0  0  0  0  0  0  0  0
    8.6671   -4.7970    0.0000 H   0  0  0  0  0  0  0  0  0  0  0  0
    9.4558    0.5068    0.0000 H   0  0  0  0  0  0  0  0  0  0  0  0
    7.6634    3.2034    0.0000 H   0  0  0  0  0  0  0  0  0  0  0  0
    6.6427    2.8698    0.0000 H   0  0  0  0  0  0  0  0  0  0  0  0
    3.1064    2.4819    0.0000 H   0  0  0  0  0  0  0  0  0  0  0  0
    3.7602    3.9641    0.0000 H   0  0  0  0  0  0  0  0  0  0  0  0
    5.1579    4.9870    0.0000 H   0  0  0  0  0  0  0  0  0  0  0  0
  1 14  2  0  0  0  0
  2 35  1  0  0  0  0
  2 60  1  0  0  0  0
  3 11  1  0  0  0  0
  3 14  1  0  0  0  0
  3 15  1  0  0  0  0
  4  6  1  0  0  0  0
  4 10  1  0  0  0  0
  4 13  1  0  0  0  0
  5 11  2  0  0  0  0
  5 17  1  0  0  0  0
  6 18  2  0  0  0  0
  7 13  2  0  0  0  0
  7 34  1  0  0  0  0
  8 23  1  0  0  0  0
  8 34  2  0  0  0  0
  9 23  1  0  0  0  0
  9 56  1  0  0  0  0
  9 57  1  0  0  0  0
 10 11  1  0  0  0  0
 10 38  1  0  0  0  0
 10 39  1  0  0  0  0
 12 14  1  0  0  0  0
 12 17  1  0  0  0  0
 12 19  2  0  0  0  0
 13 16  1  0  0  0  0
 15 20  1  0  0  0  0
 15 24  2  0  0  0  0
 16 18  1  0  0  0  0
 16 23  2  0  0  0  0
 17 22  2  0  0  0  0
 18 21  1  0  0  0  0
 19 25  1  0  0  0  0
 19 27  1  0  0  0  0
 20 28  2  0  0  0  0
 20 29  1  0  0  0  0
 21 31  2  0  0  0  0
 21 32  1  0  0  0  0
 22 26  1  0  0  0  0
 22 40  1  0  0  0  0
 24 30  1  0  0  0  0
 24 41  1  0  0  0  0
 25 26  2  0  0  0  0
 25 42  1  0  0  0  0
 26 43  1  0  0  0  0
 27 44  1  0  0  0  0
 27 45  1  0  0  0  0
 27 46  1  0  0  0  0
 28 33  1  0  0  0  0
 28 47  1  0  0  0  0
 29 48  1  0  0  0  0
 29 49  1  0  0  0  0
 29 50  1  0  0  0  0
 30 33  2  0  0  0  0
 30 51  1  0  0  0  0
 31 35  1  0  0  0  0
 31 52  1  0  0  0  0
 32 36  2  0  0  0  0
 32 53  1  0  0  0  0
 33 54  1  0  0  0  0
 34 55  1  0  0  0  0
 35 37  2  0  0  0  0
 36 37  1  0  0  0  0
 36 58  1  0  0  0  0
 37 59  1  0  0  0  0
M  END
> <PUBCHEM_COMPOUND_CID>
24905149

> <PUBCHEM_COMPOUND_CANONICALIZED>
1

> <PUBCHEM_CACTVS_COMPLEXITY>
869

> <PUBCHEM_CACTVS_HBOND_ACCEPTOR>
7

> <PUBCHEM_CACTVS_HBOND_DONOR>
2

> <PUBCHEM_CACTVS_ROTATABLE_BOND>
4

> <PUBCHEM_CACTVS_SUBSKEYS>
AAADceB7sAAAAAAAAAAAAAAAAAAAAWAAAAA8YMECAAAAAFiB/AAAHgAYCAAADAzBnwQ39t9IEgCqAydzdACShCs1oqAd2CE+bNiIbrrC3dOU9YhszBPI2We4yPCOgAABQAASAAAAAAKAACQAAAAAAAAAAA==

> <PUBCHEM_IUPAC_OPENEYE_NAME>
2-[[4-amino-3-(3-hydroxyphenyl)pyrazolo[3,4-d]pyrimidin-1-yl]methyl]-5-methyl-3-(o-tolyl)quinazolin-4-one

> <PUBCHEM_IUPAC_CAS_NAME>
2-[[4-amino-3-(3-hydroxyphenyl)-1-pyrazolo[3,4-d]pyrimidinyl]methyl]-5-methyl-3-(2-methylphenyl)-4-quinazolinone

> <PUBCHEM_IUPAC_NAME_MARKUP>
2-[[4-amino-3-(3-hydroxyphenyl)pyrazolo[3,4-d]pyrimidin-1-yl]methyl]-5-methyl-3-(2-methylphenyl)quinazolin-4-one

> <PUBCHEM_IUPAC_NAME>
2-[[4-amino-3-(3-hydroxyphenyl)pyrazolo[3,4-d]pyrimidin-1-yl]methyl]-5-methyl-3-(2-methylphenyl)quinazolin-4-one

> <PUBCHEM_IUPAC_SYSTEMATIC_NAME>
2-[[4-azanyl-3-(3-hydroxyphenyl)pyrazolo[3,4-d]pyrimidin-1-yl]methyl]-5-methyl-3-(2-methylphenyl)quinazolin-4-one

> <PUBCHEM_IUPAC_TRADITIONAL_NAME>
2-[[4-amino-3-(3-hydroxyphenyl)pyrazolo[3,4-d]pyrimidin-1-yl]methyl]-5-methyl-3-(o-tolyl)quinazolin-4-one

> <PUBCHEM_IUPAC_INCHI>
InChI=1S/C28H23N7O2/c1-16-7-3-4-12-21(16)35-22(32-20-11-5-8-17(2)23(20)28(35)37)14-34-27-24(26(29)30-15-31-27)25(33-34)18-9-6-10-19(36)13-18/h3-13,15,36H,14H2,1-2H3,(H2,29,30,31)

> <PUBCHEM_IUPAC_INCHIKEY>
WFSLJOPRIJSOJR-UHFFFAOYSA-N

> <PUBCHEM_XLOGP3_AA>
4.2

> <PUBCHEM_EXACT_MASS>
489.19132300

> <PUBCHEM_MOLECULAR_FORMULA>
C28H23N7O2

> <PUBCHEM_MOLECULAR_WEIGHT>
489.5

> <PUBCHEM_SMILES>
CC1=C2C(=CC=C1)N=C(N(C2=O)C3=CC=CC=C3C)CN4C5=NC=NC(=C5C(=N4)C6=CC(=CC=C6)O)N

> <PUBCHEM_OPENEYE_CAN_SMILES>
CC1=C2C(=CC=C1)N=C(N(C2=O)C3=CC=CC=C3C)CN4C5=NC=NC(=C5C(=N4)C6=CC(=CC=C6)O)N

> <PUBCHEM_OPENEYE_ISO_SMILES>
CC1=C2C(=CC=C1)N=C(N(C2=O)C3=CC=CC=C3C)CN4C5=NC=NC(=C5C(=N4)C6=CC(=CC=C6)O)N

> <PUBCHEM_CACTVS_TPSA>
123

> <PUBCHEM_MONOISOTOPIC_WEIGHT>
489.19132300

> <PUBCHEM_TOTAL_CHARGE>
0

> <PUBCHEM_HEAVY_ATOM_COUNT>
37

> <PUBCHEM_ATOM_DEF_STEREO_COUNT>
0

> <PUBCHEM_ATOM_UDEF_STEREO_COUNT>
0

> <PUBCHEM_BOND_DEF_STEREO_COUNT>
0

> <PUBCHEM_BOND_UDEF_STEREO_COUNT>
0

> <PUBCHEM_ISOTOPIC_ATOM_COUNT>
0

> <PUBCHEM_COMPONENT_COUNT>
1

> <PUBCHEM_CACTVS_TAUTO_COUNT>
-1

> <PUBCHEM_COORDINATE_TYPE>
1
5
255

> <PUBCHEM_BONDANNOTATIONS>
12  14  8
12  17  8
12  19  8
13  16  8
15  20  8
15  24  8
16  18  8
16  23  8
17  22  8
19  25  8
20  28  8
21  31  8
21  32  8
22  26  8
24  30  8
25  26  8
28  33  8
3  11  8
3  14  8
30  33  8
31  35  8
32  36  8
35  37  8
36  37  8
4  13  8
4  6  8
5  11  8
5  17  8
6  18  8
7  13  8
7  34  8
8  23  8
8  34  8

$$$$
