136027060
  -OEChem-03202502242D

 32 33  0     0  0  0  0  0  0999 V2000
    5.4641   -3.3450    0.0000 Br  0  0  0  0  0  0  0  0  0  0  0  0
    2.0000   -3.3450    0.0000 Br  0  0  0  0  0  0  0  0  0  0  0  0
    3.7320   -4.3450    0.0000 O   0  0  0  0  0  0  0  0  0  0  0  0
    6.3301    1.1550    0.0000 O   0  0  0  0  0  0  0  0  0  0  0  0
    5.4641    2.6550    0.0000 N   0  0  0  0  0  0  0  0  0  0  0  0
    4.5981    1.1550    0.0000 N   0  0  0  0  0  0  0  0  0  0  0  0
    4.5981    0.1550    0.0000 N   0  0  0  0  0  0  0  0  0  0  0  0
    3.7320   -1.3450    0.0000 C   0  0  0  0  0  0  0  0  0  0  0  0
    6.3301    3.1550    0.0000 C   0  0  0  0  0  0  0  0  0  0  0  0
    2.8660   -1.8450    0.0000 C   0  0  0  0  0  0  0  0  0  0  0  0
    4.5981   -1.8450    0.0000 C   0  0  0  0  0  0  0  0  0  0  0  0
    3.7320   -3.3450    0.0000 C   0  0  0  0  0  0  0  0  0  0  0  0
    4.5981   -2.8450    0.0000 C   0  0  0  0  0  0  0  0  0  0  0  0
    2.8660   -2.8450    0.0000 C   0  0  0  0  0  0  0  0  0  0  0  0
    7.1962    2.6550    0.0000 C   0  0  0  0  0  0  0  0  0  0  0  0
    6.3301    4.1550    0.0000 C   0  0  0  0  0  0  0  0  0  0  0  0
    3.7320   -0.3450    0.0000 C   0  0  0  0  0  0  0  0  0  0  0  0
    8.0622    3.1550    0.0000 C   0  0  0  0  0  0  0  0  0  0  0  0
    7.1962    4.6550    0.0000 C   0  0  0  0  0  0  0  0  0  0  0  0
    8.0622    4.1550    0.0000 C   0  0  0  0  0  0  0  0  0  0  0  0
    5.4641    1.6550    0.0000 C   0  0  0  0  0  0  0  0  0  0  0  0
    2.3291   -1.5350    0.0000 H   0  0  0  0  0  0  0  0  0  0  0  0
    5.1350   -1.5350    0.0000 H   0  0  0  0  0  0  0  0  0  0  0  0
    7.1962    2.0350    0.0000 H   0  0  0  0  0  0  0  0  0  0  0  0
    5.7932    4.4650    0.0000 H   0  0  0  0  0  0  0  0  0  0  0  0
    4.9272    2.9650    0.0000 H   0  0  0  0  0  0  0  0  0  0  0  0
    3.1951   -0.0350    0.0000 H   0  0  0  0  0  0  0  0  0  0  0  0
    8.5991    2.8450    0.0000 H   0  0  0  0  0  0  0  0  0  0  0  0
    7.1962    5.2750    0.0000 H   0  0  0  0  0  0  0  0  0  0  0  0
    8.5991    4.4650    0.0000 H   0  0  0  0  0  0  0  0  0  0  0  0
    4.0611    1.4650    0.0000 H   0  0  0  0  0  0  0  0  0  0  0  0
    3.1951   -4.6550    0.0000 H   0  0  0  0  0  0  0  0  0  0  0  0
  1 13  1  0  0  0  0
  2 14  1  0  0  0  0
  3 12  1  0  0  0  0
  3 32  1  0  0  0  0
  4 21  2  0  0  0  0
  5  9  1  0  0  0  0
  5 21  1  0  0  0  0
  5 26  1  0  0  0  0
  6  7  1  0  0  0  0
  6 21  1  0  0  0  0
  6 31  1  0  0  0  0
  7 17  2  3  0  0  0
  8 10  2  0  0  0  0
  8 11  1  0  0  0  0
  8 17  1  0  0  0  0
  9 15  2  0  0  0  0
  9 16  1  0  0  0  0
 10 14  1  0  0  0  0
 10 22  1  0  0  0  0
 11 13  2  0  0  0  0
 11 23  1  0  0  0  0
 12 13  1  0  0  0  0
 12 14  2  0  0  0  0
 15 18  1  0  0  0  0
 15 24  1  0  0  0  0
 16 19  2  0  0  0  0
 16 25  1  0  0  0  0
 17 27  1  0  0  0  0
 18 20  2  0  0  0  0
 18 28  1  0  0  0  0
 19 20  1  0  0  0  0
 19 29  1  0  0  0  0
 20 30  1  0  0  0  0
M  END
> <PUBCHEM_COMPOUND_CID>
136027060

> <PUBCHEM_COMPOUND_CANONICALIZED>
1

> <PUBCHEM_CACTVS_COMPLEXITY>
363

> <PUBCHEM_CACTVS_HBOND_ACCEPTOR>
3

> <PUBCHEM_CACTVS_HBOND_DONOR>
3

> <PUBCHEM_CACTVS_ROTATABLE_BOND>
3

> <PUBCHEM_CACTVS_SUBSKEYS>
AAADccBzMAAAGAAAAAAAAAAAAAAAAAAAAAAwYAAAAAAAAAABQAAAHgBYCAABrAzBmAQxxoLiAgCoAjRjUACSAAAhIgQOiAAkbLiIJqLCkZOEcAh03BNI2jeQwAAOIAAAEAAgBABAAAAgAEAIAAAAAAAAAA==

> <PUBCHEM_IUPAC_OPENEYE_NAME>
1-[(3,5-dibromo-4-hydroxy-phenyl)methyleneamino]-3-phenyl-urea

> <PUBCHEM_IUPAC_CAS_NAME>
1-[(3,5-dibromo-4-hydroxyphenyl)methylideneamino]-3-phenylurea

> <PUBCHEM_IUPAC_NAME_MARKUP>
1-[(3,5-dibromo-4-hydroxyphenyl)methylideneamino]-3-phenylurea

> <PUBCHEM_IUPAC_NAME>
1-[(3,5-dibromo-4-hydroxyphenyl)methylideneamino]-3-phenylurea

> <PUBCHEM_IUPAC_SYSTEMATIC_NAME>
1-[[3,5-bis(bromanyl)-4-oxidanyl-phenyl]methylideneamino]-3-phenyl-urea

> <PUBCHEM_IUPAC_TRADITIONAL_NAME>
1-[(3,5-dibromo-4-hydroxy-benzylidene)amino]-3-phenyl-urea

> <PUBCHEM_IUPAC_INCHI>
InChI=1S/C14H11Br2N3O2/c15-11-6-9(7-12(16)13(11)20)8-17-19-14(21)18-10-4-2-1-3-5-10/h1-8,20H,(H2,18,19,21)

> <PUBCHEM_IUPAC_INCHIKEY>
TYLZTFWVTCNJKJ-UHFFFAOYSA-N

> <PUBCHEM_XLOGP3_AA>
3.6

> <PUBCHEM_EXACT_MASS>
412.91975

> <PUBCHEM_MOLECULAR_FORMULA>
C14H11Br2N3O2

> <PUBCHEM_MOLECULAR_WEIGHT>
413.06

> <PUBCHEM_SMILES>
C1=CC=C(C=C1)NC(=O)NN=CC2=CC(=C(C(=C2)Br)O)Br

> <PUBCHEM_OPENEYE_CAN_SMILES>
C1=CC=C(C=C1)NC(=O)NN=CC2=CC(=C(C(=C2)Br)O)Br

> <PUBCHEM_OPENEYE_ISO_SMILES>
C1=CC=C(C=C1)NC(=O)NN=CC2=CC(=C(C(=C2)Br)O)Br

> <PUBCHEM_CACTVS_TPSA>
73.7

> <PUBCHEM_MONOISOTOPIC_WEIGHT>
410.92180

> <PUBCHEM_TOTAL_CHARGE>
0

> <PUBCHEM_HEAVY_ATOM_COUNT>
21

> <PUBCHEM_ATOM_DEF_STEREO_COUNT>
0

> <PUBCHEM_ATOM_UDEF_STEREO_COUNT>
0

> <PUBCHEM_BOND_DEF_STEREO_COUNT>
0

> <PUBCHEM_BOND_UDEF_STEREO_COUNT>
1

> <PUBCHEM_ISOTOPIC_ATOM_COUNT>
0

> <PUBCHEM_COMPONENT_COUNT>
1

> <PUBCHEM_CACTVS_TAUTO_COUNT>
-1

> <PUBCHEM_COORDINATE_TYPE>
1
5
255

> <PUBCHEM_BONDANNOTATIONS>
10  14  8
11  13  8
12  13  8
12  14  8
15  18  8
16  19  8
18  20  8
19  20  8
7  17  1
8  10  8
8  11  8
9  15  8
9  16  8

$$$$
