24859161
  -OEChem-03202501282D

 48 51  0     0  0  0  0  0  0999 V2000
    3.0000   -5.7821    0.0000 F   0  0  0  0  0  0  0  0  0  0  0  0
    2.0000   -4.7821    0.0000 F   0  0  0  0  0  0  0  0  0  0  0  0
    4.0000   -4.7821    0.0000 F   0  0  0  0  0  0  0  0  0  0  0  0
    7.2712    5.7821    0.0000 O   0  0  0  0  0  0  0  0  0  0  0  0
    6.4803   -0.7275    0.0000 O   0  0  0  0  0  0  0  0  0  0  0  0
    7.2943    3.7822    0.0000 N   0  0  0  0  0  0  0  0  0  0  0  0
    6.4456    2.2723    0.0000 N   0  0  0  0  0  0  0  0  0  0  0  0
    5.5970    0.7624    0.0000 N   0  0  0  0  0  0  0  0  0  0  0  0
    4.7484   -0.7475    0.0000 N   0  0  0  0  0  0  0  0  0  0  0  0
    4.7600   -3.8168    0.0000 N   0  0  0  0  0  0  0  0  0  0  0  0
    6.4225    4.2722    0.0000 C   0  0  0  0  0  0  0  0  0  0  0  0
    8.1545    4.2922    0.0000 C   0  0  0  0  0  0  0  0  0  0  0  0
    6.4110    5.2721    0.0000 C   0  0  0  0  0  0  0  0  0  0  0  0
    8.1429    5.2922    0.0000 C   0  0  0  0  0  0  0  0  0  0  0  0
    7.3058    2.7823    0.0000 C   0  0  0  0  0  0  0  0  0  0  0  0
    8.1776    2.2924    0.0000 C   0  0  0  0  0  0  0  0  0  0  0  0
    3.8660   -2.2821    0.0000 C   0  0  0  0  0  0  0  0  0  0  0  0
    6.4572    1.2724    0.0000 C   0  0  0  0  0  0  0  0  0  0  0  0
    3.8660   -3.2821    0.0000 C   0  0  0  0  0  0  0  0  0  0  0  0
    4.7600   -1.7474    0.0000 C   0  0  0  0  0  0  0  0  0  0  0  0
    8.1892    1.2924    0.0000 C   0  0  0  0  0  0  0  0  0  0  0  0
    3.0000   -3.7821    0.0000 C   0  0  0  0  0  0  0  0  0  0  0  0
    7.3290    0.7824    0.0000 C   0  0  0  0  0  0  0  0  0  0  0  0
    3.0000   -1.7821    0.0000 C   0  0  0  0  0  0  0  0  0  0  0  0
    2.1340   -3.2821    0.0000 C   0  0  0  0  0  0  0  0  0  0  0  0
    5.6660   -2.2613    0.0000 C   0  0  0  0  0  0  0  0  0  0  0  0
    2.1340   -2.2821    0.0000 C   0  0  0  0  0  0  0  0  0  0  0  0
    5.6086   -0.2375    0.0000 C   0  0  0  0  0  0  0  0  0  0  0  0
    3.0000   -4.7821    0.0000 C   0  0  0  0  0  0  0  0  0  0  0  0
    5.6660   -3.3029    0.0000 C   0  0  0  0  0  0  0  0  0  0  0  0
    5.8107    4.3728    0.0000 H   0  0  0  0  0  0  0  0  0  0  0  0
    6.2172    3.6872    0.0000 H   0  0  0  0  0  0  0  0  0  0  0  0
    8.3732    3.7121    0.0000 H   0  0  0  0  0  0  0  0  0  0  0  0
    8.7638    4.4069    0.0000 H   0  0  0  0  0  0  0  0  0  0  0  0
    6.1922    5.8522    0.0000 H   0  0  0  0  0  0  0  0  0  0  0  0
    5.8017    5.1574    0.0000 H   0  0  0  0  0  0  0  0  0  0  0  0
    8.7547    5.1916    0.0000 H   0  0  0  0  0  0  0  0  0  0  0  0
    8.3482    5.8772    0.0000 H   0  0  0  0  0  0  0  0  0  0  0  0
    8.7109    2.6085    0.0000 H   0  0  0  0  0  0  0  0  0  0  0  0
    8.7296    0.9886    0.0000 H   0  0  0  0  0  0  0  0  0  0  0  0
    7.3361    0.1625    0.0000 H   0  0  0  0  0  0  0  0  0  0  0  0
    3.0000   -1.1621    0.0000 H   0  0  0  0  0  0  0  0  0  0  0  0
    5.0565    1.0662    0.0000 H   0  0  0  0  0  0  0  0  0  0  0  0
    4.2079   -0.4437    0.0000 H   0  0  0  0  0  0  0  0  0  0  0  0
    1.5970   -3.5921    0.0000 H   0  0  0  0  0  0  0  0  0  0  0  0
    6.2018   -1.9492    0.0000 H   0  0  0  0  0  0  0  0  0  0  0  0
    1.5970   -1.9721    0.0000 H   0  0  0  0  0  0  0  0  0  0  0  0
    6.2018   -3.6150    0.0000 H   0  0  0  0  0  0  0  0  0  0  0  0
  1 29  1  0  0  0  0
  2 29  1  0  0  0  0
  3 29  1  0  0  0  0
  4 13  1  0  0  0  0
  4 14  1  0  0  0  0
  5 28  2  0  0  0  0
  6 11  1  0  0  0  0
  6 12  1  0  0  0  0
  6 15  1  0  0  0  0
  7 15  1  0  0  0  0
  7 18  2  0  0  0  0
  8 18  1  0  0  0  0
  8 28  1  0  0  0  0
  8 43  1  0  0  0  0
  9 20  1  0  0  0  0
  9 28  1  0  0  0  0
  9 44  1  0  0  0  0
 10 19  2  0  0  0  0
 10 30  1  0  0  0  0
 11 13  1  0  0  0  0
 11 31  1  0  0  0  0
 11 32  1  0  0  0  0
 12 14  1  0  0  0  0
 12 33  1  0  0  0  0
 12 34  1  0  0  0  0
 13 35  1  0  0  0  0
 13 36  1  0  0  0  0
 14 37  1  0  0  0  0
 14 38  1  0  0  0  0
 15 16  2  0  0  0  0
 16 21  1  0  0  0  0
 16 39  1  0  0  0  0
 17 19  1  0  0  0  0
 17 20  2  0  0  0  0
 17 24  1  0  0  0  0
 18 23  1  0  0  0  0
 19 22  1  0  0  0  0
 20 26  1  0  0  0  0
 21 23  2  0  0  0  0
 21 40  1  0  0  0  0
 22 25  2  0  0  0  0
 22 29  1  0  0  0  0
 23 41  1  0  0  0  0
 24 27  2  0  0  0  0
 24 42  1  0  0  0  0
 25 27  1  0  0  0  0
 25 45  1  0  0  0  0
 26 30  2  0  0  0  0
 26 46  1  0  0  0  0
 27 47  1  0  0  0  0
 30 48  1  0  0  0  0
M  END
> <PUBCHEM_COMPOUND_CID>
24859161

> <PUBCHEM_COMPOUND_CANONICALIZED>
1

> <PUBCHEM_CACTVS_COMPLEXITY>
587

> <PUBCHEM_CACTVS_HBOND_ACCEPTOR>
8

> <PUBCHEM_CACTVS_HBOND_DONOR>
2

> <PUBCHEM_CACTVS_ROTATABLE_BOND>
3

> <PUBCHEM_CACTVS_SUBSKEYS>
AAADceB7sYAAAAAAAAAAAAAAAAAAAAAAAAA8WLEAAAAAAACx/AAAHwAQAAAADAjhnhY98PPIFACoAzZndACCgCkxAiAJ2CA4ZJiKIOLA2dGHJAholQLYyCcQgMAOAAACAAACAAAAAAQAAAQAAAAAAAAAAA==

> <PUBCHEM_IUPAC_OPENEYE_NAME>
1-(6-morpholino-2-pyridyl)-3-[8-(trifluoromethyl)-4-quinolyl]urea

> <PUBCHEM_IUPAC_CAS_NAME>
1-[6-(4-morpholinyl)-2-pyridinyl]-3-[8-(trifluoromethyl)-4-quinolinyl]urea

> <PUBCHEM_IUPAC_NAME_MARKUP>
1-(6-morpholin-4-ylpyridin-2-yl)-3-[8-(trifluoromethyl)quinolin-4-yl]urea

> <PUBCHEM_IUPAC_NAME>
1-(6-morpholin-4-ylpyridin-2-yl)-3-[8-(trifluoromethyl)quinolin-4-yl]urea

> <PUBCHEM_IUPAC_SYSTEMATIC_NAME>
1-(6-morpholin-4-ylpyridin-2-yl)-3-[8-(trifluoromethyl)quinolin-4-yl]urea

> <PUBCHEM_IUPAC_TRADITIONAL_NAME>
1-(6-morpholino-2-pyridyl)-3-[8-(trifluoromethyl)-4-quinolyl]urea

> <PUBCHEM_IUPAC_INCHI>
InChI=1S/C20H18F3N5O2/c21-20(22,23)14-4-1-3-13-15(7-8-24-18(13)14)25-19(29)27-16-5-2-6-17(26-16)28-9-11-30-12-10-28/h1-8H,9-12H2,(H2,24,25,26,27,29)

> <PUBCHEM_IUPAC_INCHIKEY>
MJCKUHBSAUHVJE-UHFFFAOYSA-N

> <PUBCHEM_XLOGP3_AA>
3

> <PUBCHEM_EXACT_MASS>
417.14125932

> <PUBCHEM_MOLECULAR_FORMULA>
C20H18F3N5O2

> <PUBCHEM_MOLECULAR_WEIGHT>
417.4

> <PUBCHEM_SMILES>
C1COCCN1C2=CC=CC(=N2)NC(=O)NC3=C4C=CC=C(C4=NC=C3)C(F)(F)F

> <PUBCHEM_OPENEYE_CAN_SMILES>
C1COCCN1C2=CC=CC(=N2)NC(=O)NC3=C4C=CC=C(C4=NC=C3)C(F)(F)F

> <PUBCHEM_OPENEYE_ISO_SMILES>
C1COCCN1C2=CC=CC(=N2)NC(=O)NC3=C4C=CC=C(C4=NC=C3)C(F)(F)F

> <PUBCHEM_CACTVS_TPSA>
79.4

> <PUBCHEM_MONOISOTOPIC_WEIGHT>
417.14125932

> <PUBCHEM_TOTAL_CHARGE>
0

> <PUBCHEM_HEAVY_ATOM_COUNT>
30

> <PUBCHEM_ATOM_DEF_STEREO_COUNT>
0

> <PUBCHEM_ATOM_UDEF_STEREO_COUNT>
0

> <PUBCHEM_BOND_DEF_STEREO_COUNT>
0

> <PUBCHEM_BOND_UDEF_STEREO_COUNT>
0

> <PUBCHEM_ISOTOPIC_ATOM_COUNT>
0

> <PUBCHEM_COMPONENT_COUNT>
1

> <PUBCHEM_CACTVS_TAUTO_COUNT>
-1

> <PUBCHEM_COORDINATE_TYPE>
1
5
255

> <PUBCHEM_BONDANNOTATIONS>
10  19  8
10  30  8
15  16  8
16  21  8
17  19  8
17  20  8
17  24  8
18  23  8
19  22  8
20  26  8
21  23  8
22  25  8
24  27  8
25  27  8
26  30  8
7  15  8
7  18  8

$$$$
