46837054
  -OEChem-03202502272D

 60 65  0     1  0  0  0  0  0999 V2000
    8.2148    2.2954    0.0000 S   0  0  0  0  0  0  0  0  0  0  0  0
    2.1743   -1.2487    0.0000 S   0  0  0  0  0  0  0  0  0  0  0  0
    4.6926    0.3641    0.0000 O   0  0  0  0  0  0  0  0  0  0  0  0
    8.2029   -1.0364    0.0000 O   0  0  0  0  0  0  0  0  0  0  0  0
    9.7852   -0.3319    0.0000 O   0  0  0  0  0  0  0  0  0  0  0  0
   13.2688    2.8839    0.0000 O   0  0  0  0  0  0  0  0  0  0  0  0
    6.4353    2.3886    0.0000 N   0  0  3  0  0  0  0  0  0  0  0  0
    7.4058    0.8941    0.0000 N   0  0  0  0  0  0  0  0  0  0  0  0
    2.9607    0.3441    0.0000 N   0  0  0  0  0  0  0  0  0  0  0  0
    3.7837   -1.2301    0.0000 N   0  0  0  0  0  0  0  0  0  0  0  0
    6.4353    3.3886    0.0000 C   0  0  0  0  0  0  0  0  0  0  0  0
    5.5693    3.8886    0.0000 C   0  0  0  0  0  0  0  0  0  0  0  0
    5.5693    1.8886    0.0000 C   0  0  0  0  0  0  0  0  0  0  0  0
    4.7032    2.3886    0.0000 C   0  0  0  0  0  0  0  0  0  0  0  0
    4.7032    3.3886    0.0000 C   0  0  0  0  0  0  0  0  0  0  0  0
    3.8093    1.8540    0.0000 C   0  0  0  0  0  0  0  0  0  0  0  0
    7.3013    1.8886    0.0000 C   0  0  0  0  0  0  0  0  0  0  0  0
    3.8093    3.9233    0.0000 C   0  0  0  0  0  0  0  0  0  0  0  0
    2.9032    2.3678    0.0000 C   0  0  0  0  0  0  0  0  0  0  0  0
    2.9032    3.4095    0.0000 C   0  0  0  0  0  0  0  0  0  0  0  0
    3.8208    0.8541    0.0000 C   0  0  0  0  0  0  0  0  0  0  0  0
    8.8840    1.5522    0.0000 C   0  0  0  0  0  0  0  0  0  0  0  0
    8.3840    0.6862    0.0000 C   0  0  0  0  0  0  0  0  0  0  0  0
    9.8785    1.6568    0.0000 C   0  0  0  0  0  0  0  0  0  0  0  0
   10.4663    0.8477    0.0000 C   0  0  0  0  0  0  0  0  0  0  0  0
   10.2852    2.5703    0.0000 C   0  0  0  0  0  0  0  0  0  0  0  0
    8.7907   -0.2273    0.0000 C   0  0  0  0  0  0  0  0  0  0  0  0
    2.9722   -0.6559    0.0000 C   0  0  0  0  0  0  0  0  0  0  0  0
   11.8675    1.8658    0.0000 C   0  0  0  0  0  0  0  0  0  0  0  0
   11.4608    0.9523    0.0000 C   0  0  0  0  0  0  0  0  0  0  0  0
   11.2798    2.6748    0.0000 C   0  0  0  0  0  0  0  0  0  0  0  0
    2.4900   -2.1914    0.0000 C   0  0  0  0  0  0  0  0  0  0  0  0
    3.4899   -2.1798    0.0000 C   0  0  0  0  0  0  0  0  0  0  0  0
   12.8621    1.9704    0.0000 C   0  0  0  0  0  0  0  0  0  0  0  0
    2.0000   -3.0631    0.0000 C   0  0  0  0  0  0  0  0  0  0  0  0
    3.9999   -3.0400    0.0000 C   0  0  0  0  0  0  0  0  0  0  0  0
    2.5100   -3.9233    0.0000 C   0  0  0  0  0  0  0  0  0  0  0  0
    3.5099   -3.9117    0.0000 C   0  0  0  0  0  0  0  0  0  0  0  0
    7.0459    3.2810    0.0000 H   0  0  0  0  0  0  0  0  0  0  0  0
    6.6473    3.9712    0.0000 H   0  0  0  0  0  0  0  0  0  0  0  0
    5.9678    4.3636    0.0000 H   0  0  0  0  0  0  0  0  0  0  0  0
    5.1707    4.3636    0.0000 H   0  0  0  0  0  0  0  0  0  0  0  0
    5.1707    1.4137    0.0000 H   0  0  0  0  0  0  0  0  0  0  0  0
    5.9678    1.4137    0.0000 H   0  0  0  0  0  0  0  0  0  0  0  0
    3.8165    4.5433    0.0000 H   0  0  0  0  0  0  0  0  0  0  0  0
    2.3675    2.0558    0.0000 H   0  0  0  0  0  0  0  0  0  0  0  0
    2.3675    3.7215    0.0000 H   0  0  0  0  0  0  0  0  0  0  0  0
    2.4202    0.6478    0.0000 H   0  0  0  0  0  0  0  0  0  0  0  0
   10.2141    0.2814    0.0000 H   0  0  0  0  0  0  0  0  0  0  0  0
    9.9208    3.0719    0.0000 H   0  0  0  0  0  0  0  0  0  0  0  0
   11.8252    0.4507    0.0000 H   0  0  0  0  0  0  0  0  0  0  0  0
   11.5319    3.2412    0.0000 H   0  0  0  0  0  0  0  0  0  0  0  0
   12.8188    1.3519    0.0000 H   0  0  0  0  0  0  0  0  0  0  0  0
   13.4637    1.8204    0.0000 H   0  0  0  0  0  0  0  0  0  0  0  0
    1.3800   -3.0703    0.0000 H   0  0  0  0  0  0  0  0  0  0  0  0
    4.6198   -3.0328    0.0000 H   0  0  0  0  0  0  0  0  0  0  0  0
    8.4551   -1.6027    0.0000 H   0  0  0  0  0  0  0  0  0  0  0  0
    2.2062   -4.4638    0.0000 H   0  0  0  0  0  0  0  0  0  0  0  0
    3.8261   -4.4451    0.0000 H   0  0  0  0  0  0  0  0  0  0  0  0
   13.8854    2.9487    0.0000 H   0  0  0  0  0  0  0  0  0  0  0  0
  1 17  1  0  0  0  0
  1 22  1  0  0  0  0
  2 28  1  0  0  0  0
  2 32  1  0  0  0  0
  3 21  2  0  0  0  0
  4 27  1  0  0  0  0
  4 57  1  0  0  0  0
  5 27  2  0  0  0  0
  6 34  1  0  0  0  0
  6 60  1  0  0  0  0
  7 11  1  0  0  0  0
  7 13  1  0  0  0  0
  7 17  1  0  0  0  0
  8 17  2  0  0  0  0
  8 23  1  0  0  0  0
  9 21  1  0  0  0  0
  9 28  1  0  0  0  0
  9 48  1  0  0  0  0
 10 28  2  0  0  0  0
 10 33  1  0  0  0  0
 11 12  1  0  0  0  0
 11 39  1  0  0  0  0
 11 40  1  0  0  0  0
 12 15  1  0  0  0  0
 12 41  1  0  0  0  0
 12 42  1  0  0  0  0
 13 14  1  0  0  0  0
 13 43  1  0  0  0  0
 13 44  1  0  0  0  0
 14 15  2  0  0  0  0
 14 16  1  0  0  0  0
 15 18  1  0  0  0  0
 16 19  2  0  0  0  0
 16 21  1  0  0  0  0
 18 20  2  0  0  0  0
 18 45  1  0  0  0  0
 19 20  1  0  0  0  0
 19 46  1  0  0  0  0
 20 47  1  0  0  0  0
 22 23  2  0  0  0  0
 22 24  1  0  0  0  0
 23 27  1  0  0  0  0
 24 25  2  0  0  0  0
 24 26  1  0  0  0  0
 25 30  1  0  0  0  0
 25 49  1  0  0  0  0
 26 31  2  0  0  0  0
 26 50  1  0  0  0  0
 29 30  2  0  0  0  0
 29 31  1  0  0  0  0
 29 34  1  0  0  0  0
 30 51  1  0  0  0  0
 31 52  1  0  0  0  0
 32 33  1  0  0  0  0
 32 35  2  0  0  0  0
 33 36  2  0  0  0  0
 34 53  1  0  0  0  0
 34 54  1  0  0  0  0
 35 37  1  0  0  0  0
 35 55  1  0  0  0  0
 36 38  1  0  0  0  0
 36 56  1  0  0  0  0
 37 38  2  0  0  0  0
 37 58  1  0  0  0  0
 38 59  1  0  0  0  0
M  END
> <PUBCHEM_COMPOUND_CID>
46837054

> <PUBCHEM_COMPOUND_CANONICALIZED>
1

> <PUBCHEM_CACTVS_COMPLEXITY>
859

> <PUBCHEM_CACTVS_HBOND_ACCEPTOR>
9

> <PUBCHEM_CACTVS_HBOND_DONOR>
3

> <PUBCHEM_CACTVS_ROTATABLE_BOND>
6

> <PUBCHEM_CACTVS_SUBSKEYS>
AAADceB7uABgAAAAAAAAAAAAAAAAAWLAAAA8YMEAAAAAAFix/AAAHgQQCAAADAjh3gYx2bPIEgisAyXyfASD8KlnCjlJmD24bNiKNrLgnbGEcQhswQPY2aecyPCOwAACAAAQAQCAAAQAACACAAAAAAAAAA==

> <PUBCHEM_IUPAC_OPENEYE_NAME>
2-[8-(1,3-benzothiazol-2-ylcarbamoyl)-3,4-dihydro-1H-isoquinolin-2-yl]-5-[4-(hydroxymethyl)phenyl]thiazole-4-carboxylic acid

> <PUBCHEM_IUPAC_CAS_NAME>
2-[8-[(1,3-benzothiazol-2-ylamino)-oxomethyl]-3,4-dihydro-1H-isoquinolin-2-yl]-5-[4-(hydroxymethyl)phenyl]-4-thiazolecarboxylic acid

> <PUBCHEM_IUPAC_NAME_MARKUP>
2-[8-(1,3-benzothiazol-2-ylcarbamoyl)-3,4-dihydro-1<I>H</I>-isoquinolin-2-yl]-5-[4-(hydroxymethyl)phenyl]-1,3-thiazole-4-carboxylic acid

> <PUBCHEM_IUPAC_NAME>
2-[8-(1,3-benzothiazol-2-ylcarbamoyl)-3,4-dihydro-1H-isoquinolin-2-yl]-5-[4-(hydroxymethyl)phenyl]-1,3-thiazole-4-carboxylic acid

> <PUBCHEM_IUPAC_SYSTEMATIC_NAME>
2-[8-(1,3-benzothiazol-2-ylcarbamoyl)-3,4-dihydro-1H-isoquinolin-2-yl]-5-[4-(hydroxymethyl)phenyl]-1,3-thiazole-4-carboxylic acid

> <PUBCHEM_IUPAC_TRADITIONAL_NAME>
2-[8-(1,3-benzothiazol-2-ylcarbamoyl)-3,4-dihydro-1H-isoquinolin-2-yl]-5-(4-methylolphenyl)thiazole-4-carboxylic acid

> <PUBCHEM_IUPAC_INCHI>
InChI=1S/C28H22N4O4S2/c33-15-16-8-10-18(11-9-16)24-23(26(35)36)30-28(38-24)32-13-12-17-4-3-5-19(20(17)14-32)25(34)31-27-29-21-6-1-2-7-22(21)37-27/h1-11,33H,12-15H2,(H,35,36)(H,29,31,34)

> <PUBCHEM_IUPAC_INCHIKEY>
XTVULKIROSNNTG-UHFFFAOYSA-N

> <PUBCHEM_XLOGP3_AA>
5.2

> <PUBCHEM_EXACT_MASS>
542.10824754

> <PUBCHEM_MOLECULAR_FORMULA>
C28H22N4O4S2

> <PUBCHEM_MOLECULAR_WEIGHT>
542.6

> <PUBCHEM_SMILES>
C1CN(CC2=C1C=CC=C2C(=O)NC3=NC4=CC=CC=C4S3)C5=NC(=C(S5)C6=CC=C(C=C6)CO)C(=O)O

> <PUBCHEM_OPENEYE_CAN_SMILES>
C1CN(CC2=C1C=CC=C2C(=O)NC3=NC4=CC=CC=C4S3)C5=NC(=C(S5)C6=CC=C(C=C6)CO)C(=O)O

> <PUBCHEM_OPENEYE_ISO_SMILES>
C1CN(CC2=C1C=CC=C2C(=O)NC3=NC4=CC=CC=C4S3)C5=NC(=C(S5)C6=CC=C(C=C6)CO)C(=O)O

> <PUBCHEM_CACTVS_TPSA>
172

> <PUBCHEM_MONOISOTOPIC_WEIGHT>
542.10824754

> <PUBCHEM_TOTAL_CHARGE>
0

> <PUBCHEM_HEAVY_ATOM_COUNT>
38

> <PUBCHEM_ATOM_DEF_STEREO_COUNT>
0

> <PUBCHEM_ATOM_UDEF_STEREO_COUNT>
0

> <PUBCHEM_BOND_DEF_STEREO_COUNT>
0

> <PUBCHEM_BOND_UDEF_STEREO_COUNT>
0

> <PUBCHEM_ISOTOPIC_ATOM_COUNT>
0

> <PUBCHEM_COMPONENT_COUNT>
1

> <PUBCHEM_CACTVS_TAUTO_COUNT>
-1

> <PUBCHEM_COORDINATE_TYPE>
1
5
255

> <PUBCHEM_BONDANNOTATIONS>
1  17  8
1  22  8
10  28  8
10  33  8
14  15  8
14  16  8
15  18  8
16  19  8
18  20  8
19  20  8
2  28  8
2  32  8
22  23  8
24  25  8
24  26  8
25  30  8
26  31  8
29  30  8
29  31  8
32  33  8
32  35  8
33  36  8
35  37  8
36  38  8
37  38  8
8  17  8
8  23  8

$$$$
