6539952
  -OEChem-03202503372D

 70 75  0     0  0  0  0  0  0999 V2000
    5.9209    5.3511    0.0000 O   0  0  0  0  0  0  0  0  0  0  0  0
    5.9209   -3.8625    0.0000 N   0  0  0  0  0  0  0  0  0  0  0  0
    4.6783   -0.0604    0.0000 N   0  0  0  0  0  0  0  0  0  0  0  0
    6.5422   -5.7636    0.0000 N   0  0  0  0  0  0  0  0  0  0  0  0
    2.8660   -0.2557    0.0000 N   0  0  0  0  0  0  0  0  0  0  0  0
    2.0000    1.2443    0.0000 N   0  0  0  0  0  0  0  0  0  0  0  0
    2.8660    2.7443    0.0000 N   0  0  0  0  0  0  0  0  0  0  0  0
    5.6103   -2.9120    0.0000 C   0  0  0  0  0  0  0  0  0  0  0  0
    4.9889   -1.0110    0.0000 C   0  0  0  0  0  0  0  0  0  0  0  0
    4.6318   -2.7058    0.0000 C   0  0  0  0  0  0  0  0  0  0  0  0
    6.2781   -2.1677    0.0000 C   0  0  0  0  0  0  0  0  0  0  0  0
    4.3211   -1.7552    0.0000 C   0  0  0  0  0  0  0  0  0  0  0  0
    5.9674   -1.2172    0.0000 C   0  0  0  0  0  0  0  0  0  0  0  0
    6.8994   -4.0687    0.0000 C   0  0  0  0  0  0  0  0  0  0  0  0
    5.2531   -4.6068    0.0000 C   0  0  0  0  0  0  0  0  0  0  0  0
    7.2101   -5.0193    0.0000 C   0  0  0  0  0  0  0  0  0  0  0  0
    5.5637   -5.5573    0.0000 C   0  0  0  0  0  0  0  0  0  0  0  0
    3.7320    0.2443    0.0000 C   0  0  0  0  0  0  0  0  0  0  0  0
    5.2619    0.7443    0.0000 C   0  0  0  0  0  0  0  0  0  0  0  0
    3.7320    1.2443    0.0000 C   0  0  0  0  0  0  0  0  0  0  0  0
    4.6783    1.5490    0.0000 C   0  0  0  0  0  0  0  0  0  0  0  0
    6.8529   -6.7141    0.0000 C   0  0  0  0  0  0  0  0  0  0  0  0
    2.8660    1.7443    0.0000 C   0  0  0  0  0  0  0  0  0  0  0  0
    4.9889    2.4996    0.0000 C   0  0  0  0  0  0  0  0  0  0  0  0
    2.0000    0.2443    0.0000 C   0  0  0  0  0  0  0  0  0  0  0  0
    5.9674    2.7058    0.0000 C   0  0  0  0  0  0  0  0  0  0  0  0
    4.3211    3.2439    0.0000 C   0  0  0  0  0  0  0  0  0  0  0  0
    6.2781    3.6563    0.0000 C   0  0  0  0  0  0  0  0  0  0  0  0
    4.6318    4.1944    0.0000 C   0  0  0  0  0  0  0  0  0  0  0  0
    5.6103    4.4006    0.0000 C   0  0  0  0  0  0  0  0  0  0  0  0
    6.8994    5.5573    0.0000 C   0  0  0  0  0  0  0  0  0  0  0  0
    7.2101    6.5078    0.0000 C   0  0  0  0  0  0  0  0  0  0  0  0
    7.5673    4.8130    0.0000 C   0  0  0  0  0  0  0  0  0  0  0  0
    8.1886    6.7141    0.0000 C   0  0  0  0  0  0  0  0  0  0  0  0
    8.5458    5.0193    0.0000 C   0  0  0  0  0  0  0  0  0  0  0  0
    8.8564    5.9698    0.0000 C   0  0  0  0  0  0  0  0  0  0  0  0
    6.2169   -3.0398    0.0000 H   0  0  0  0  0  0  0  0  0  0  0  0
    5.4030   -0.5495    0.0000 H   0  0  0  0  0  0  0  0  0  0  0  0
    4.0179   -2.7931    0.0000 H   0  0  0  0  0  0  0  0  0  0  0  0
    4.6112   -3.3254    0.0000 H   0  0  0  0  0  0  0  0  0  0  0  0
    6.6607   -2.6556    0.0000 H   0  0  0  0  0  0  0  0  0  0  0  0
    6.8250   -1.8757    0.0000 H   0  0  0  0  0  0  0  0  0  0  0  0
    3.9385   -1.2674    0.0000 H   0  0  0  0  0  0  0  0  0  0  0  0
    3.7742   -2.0473    0.0000 H   0  0  0  0  0  0  0  0  0  0  0  0
    6.5812   -1.1298    0.0000 H   0  0  0  0  0  0  0  0  0  0  0  0
    5.9880   -0.5975    0.0000 H   0  0  0  0  0  0  0  0  0  0  0  0
    7.5132   -3.9814    0.0000 H   0  0  0  0  0  0  0  0  0  0  0  0
    6.9200   -3.4491    0.0000 H   0  0  0  0  0  0  0  0  0  0  0  0
    4.8705   -4.1189    0.0000 H   0  0  0  0  0  0  0  0  0  0  0  0
    4.7062   -4.8988    0.0000 H   0  0  0  0  0  0  0  0  0  0  0  0
    7.5926   -5.5072    0.0000 H   0  0  0  0  0  0  0  0  0  0  0  0
    7.7570   -4.7272    0.0000 H   0  0  0  0  0  0  0  0  0  0  0  0
    4.9499   -5.6447    0.0000 H   0  0  0  0  0  0  0  0  0  0  0  0
    5.5432   -6.1770    0.0000 H   0  0  0  0  0  0  0  0  0  0  0  0
    5.8819    0.7443    0.0000 H   0  0  0  0  0  0  0  0  0  0  0  0
    6.2636   -6.9067    0.0000 H   0  0  0  0  0  0  0  0  0  0  0  0
    7.0455   -7.3034    0.0000 H   0  0  0  0  0  0  0  0  0  0  0  0
    7.4422   -6.5215    0.0000 H   0  0  0  0  0  0  0  0  0  0  0  0
    1.4631   -0.0657    0.0000 H   0  0  0  0  0  0  0  0  0  0  0  0
    6.3815    2.2443    0.0000 H   0  0  0  0  0  0  0  0  0  0  0  0
    3.7144    3.1160    0.0000 H   0  0  0  0  0  0  0  0  0  0  0  0
    2.3291    3.0543    0.0000 H   0  0  0  0  0  0  0  0  0  0  0  0
    3.4030    3.0543    0.0000 H   0  0  0  0  0  0  0  0  0  0  0  0
    6.8848    3.7842    0.0000 H   0  0  0  0  0  0  0  0  0  0  0  0
    4.2177    4.6558    0.0000 H   0  0  0  0  0  0  0  0  0  0  0  0
    6.7960    6.9693    0.0000 H   0  0  0  0  0  0  0  0  0  0  0  0
    7.3747    4.2237    0.0000 H   0  0  0  0  0  0  0  0  0  0  0  0
    8.3812    7.3034    0.0000 H   0  0  0  0  0  0  0  0  0  0  0  0
    8.9598    4.5578    0.0000 H   0  0  0  0  0  0  0  0  0  0  0  0
    9.4631    6.0976    0.0000 H   0  0  0  0  0  0  0  0  0  0  0  0
  1 30  1  0  0  0  0
  1 31  1  0  0  0  0
  2  8  1  0  0  0  0
  2 14  1  0  0  0  0
  2 15  1  0  0  0  0
  3  9  1  0  0  0  0
  3 18  1  0  0  0  0
  3 19  1  0  0  0  0
  4 16  1  0  0  0  0
  4 17  1  0  0  0  0
  4 22  1  0  0  0  0
  5 18  2  0  0  0  0
  5 25  1  0  0  0  0
  6 23  1  0  0  0  0
  6 25  2  0  0  0  0
  7 23  1  0  0  0  0
  7 62  1  0  0  0  0
  7 63  1  0  0  0  0
  8 10  1  0  0  0  0
  8 11  1  0  0  0  0
  8 37  1  0  0  0  0
  9 12  1  0  0  0  0
  9 13  1  0  0  0  0
  9 38  1  0  0  0  0
 10 12  1  0  0  0  0
 10 39  1  0  0  0  0
 10 40  1  0  0  0  0
 11 13  1  0  0  0  0
 11 41  1  0  0  0  0
 11 42  1  0  0  0  0
 12 43  1  0  0  0  0
 12 44  1  0  0  0  0
 13 45  1  0  0  0  0
 13 46  1  0  0  0  0
 14 16  1  0  0  0  0
 14 47  1  0  0  0  0
 14 48  1  0  0  0  0
 15 17  1  0  0  0  0
 15 49  1  0  0  0  0
 15 50  1  0  0  0  0
 16 51  1  0  0  0  0
 16 52  1  0  0  0  0
 17 53  1  0  0  0  0
 17 54  1  0  0  0  0
 18 20  1  0  0  0  0
 19 21  2  0  0  0  0
 19 55  1  0  0  0  0
 20 21  1  0  0  0  0
 20 23  2  0  0  0  0
 21 24  1  0  0  0  0
 22 56  1  0  0  0  0
 22 57  1  0  0  0  0
 22 58  1  0  0  0  0
 24 26  2  0  0  0  0
 24 27  1  0  0  0  0
 25 59  1  0  0  0  0
 26 28  1  0  0  0  0
 26 60  1  0  0  0  0
 27 29  2  0  0  0  0
 27 61  1  0  0  0  0
 28 30  2  0  0  0  0
 28 64  1  0  0  0  0
 29 30  1  0  0  0  0
 29 65  1  0  0  0  0
 31 32  2  0  0  0  0
 31 33  1  0  0  0  0
 32 34  1  0  0  0  0
 32 66  1  0  0  0  0
 33 35  2  0  0  0  0
 33 67  1  0  0  0  0
 34 36  2  0  0  0  0
 34 68  1  0  0  0  0
 35 36  1  0  0  0  0
 35 69  1  0  0  0  0
 36 70  1  0  0  0  0
M  END
> <PUBCHEM_COMPOUND_CID>
6539952

> <PUBCHEM_COMPOUND_CANONICALIZED>
1

> <PUBCHEM_CACTVS_COMPLEXITY>
679

> <PUBCHEM_CACTVS_HBOND_ACCEPTOR>
6

> <PUBCHEM_CACTVS_HBOND_DONOR>
1

> <PUBCHEM_CACTVS_ROTATABLE_BOND>
5

> <PUBCHEM_CACTVS_SUBSKEYS>
AAADcfB7oAAAAAAAAAAAAAAAAAAAAWAAAAA8eMECAAAAAFgB/AAAHgAQAAAADCzBmwQ/tt9MFACgAjJnZACCiCkxIKAJ2CAuTJiMbmLE+duWPCjswBPI6CeQwPAOoAAAAAAAAABAAQAAAAAAAAAAAAAAAA==

> <PUBCHEM_IUPAC_OPENEYE_NAME>
7-[4-(4-methylpiperazin-1-yl)cyclohexyl]-5-(4-phenoxyphenyl)pyrrolo[2,3-d]pyrimidin-4-amine

> <PUBCHEM_IUPAC_CAS_NAME>
7-[4-(4-methyl-1-piperazinyl)cyclohexyl]-5-(4-phenoxyphenyl)-4-pyrrolo[2,3-d]pyrimidinamine

> <PUBCHEM_IUPAC_NAME_MARKUP>
7-[4-(4-methylpiperazin-1-yl)cyclohexyl]-5-(4-phenoxyphenyl)pyrrolo[2,3-d]pyrimidin-4-amine

> <PUBCHEM_IUPAC_NAME>
7-[4-(4-methylpiperazin-1-yl)cyclohexyl]-5-(4-phenoxyphenyl)pyrrolo[2,3-d]pyrimidin-4-amine

> <PUBCHEM_IUPAC_SYSTEMATIC_NAME>
7-[4-(4-methylpiperazin-1-yl)cyclohexyl]-5-(4-phenoxyphenyl)pyrrolo[2,3-d]pyrimidin-4-amine

> <PUBCHEM_IUPAC_TRADITIONAL_NAME>
[7-[4-(4-methylpiperazino)cyclohexyl]-5-(4-phenoxyphenyl)pyrrolo[2,3-d]pyrimidin-4-yl]amine

> <PUBCHEM_IUPAC_INCHI>
InChI=1S/C29H34N6O/c1-33-15-17-34(18-16-33)22-9-11-23(12-10-22)35-19-26(27-28(30)31-20-32-29(27)35)21-7-13-25(14-8-21)36-24-5-3-2-4-6-24/h2-8,13-14,19-20,22-23H,9-12,15-18H2,1H3,(H2,30,31,32)

> <PUBCHEM_IUPAC_INCHIKEY>
FDVSOQRNTAPCHB-UHFFFAOYSA-N

> <PUBCHEM_XLOGP3_AA>
4.5

> <PUBCHEM_EXACT_MASS>
482.27940973

> <PUBCHEM_MOLECULAR_FORMULA>
C29H34N6O

> <PUBCHEM_MOLECULAR_WEIGHT>
482.6

> <PUBCHEM_SMILES>
CN1CCN(CC1)C2CCC(CC2)N3C=C(C4=C(N=CN=C43)N)C5=CC=C(C=C5)OC6=CC=CC=C6

> <PUBCHEM_OPENEYE_CAN_SMILES>
CN1CCN(CC1)C2CCC(CC2)N3C=C(C4=C(N=CN=C43)N)C5=CC=C(C=C5)OC6=CC=CC=C6

> <PUBCHEM_OPENEYE_ISO_SMILES>
CN1CCN(CC1)C2CCC(CC2)N3C=C(C4=C(N=CN=C43)N)C5=CC=C(C=C5)OC6=CC=CC=C6

> <PUBCHEM_CACTVS_TPSA>
72.4

> <PUBCHEM_MONOISOTOPIC_WEIGHT>
482.27940973

> <PUBCHEM_TOTAL_CHARGE>
0

> <PUBCHEM_HEAVY_ATOM_COUNT>
36

> <PUBCHEM_ATOM_DEF_STEREO_COUNT>
0

> <PUBCHEM_ATOM_UDEF_STEREO_COUNT>
0

> <PUBCHEM_BOND_DEF_STEREO_COUNT>
0

> <PUBCHEM_BOND_UDEF_STEREO_COUNT>
0

> <PUBCHEM_ISOTOPIC_ATOM_COUNT>
0

> <PUBCHEM_COMPONENT_COUNT>
1

> <PUBCHEM_CACTVS_TAUTO_COUNT>
-1

> <PUBCHEM_COORDINATE_TYPE>
1
5
255

> <PUBCHEM_BONDANNOTATIONS>
18  20  8
19  21  8
20  21  8
20  23  8
24  26  8
24  27  8
26  28  8
27  29  8
28  30  8
29  30  8
3  18  8
3  19  8
31  32  8
31  33  8
32  34  8
33  35  8
34  36  8
35  36  8
5  18  8
5  25  8
6  23  8
6  25  8

$$$$
