4982682
  -OEChem-03202503312D

 38 41  0     0  0  0  0  0  0999 V2000
    3.8000    2.6266    0.0000 O   0  0  0  0  0  0  0  0  0  0  0  0
    5.5321    2.6266    0.0000 O   0  0  0  0  0  0  0  0  0  0  0  0
    4.6660   -0.8734    0.0000 N   0  0  0  0  0  0  0  0  0  0  0  0
    6.7889   -1.6286    0.0000 C   0  0  0  0  0  0  0  0  0  0  0  0
    6.4783   -0.6781    0.0000 C   0  0  0  0  0  0  0  0  0  0  0  0
    6.2026   -2.4386    0.0000 C   0  0  0  0  0  0  0  0  0  0  0  0
    7.7405   -1.9360    0.0000 C   0  0  0  0  0  0  0  0  0  0  0  0
    6.7917   -3.2466    0.0000 C   0  0  0  0  0  0  0  0  0  0  0  0
    7.7423   -2.9360    0.0000 C   0  0  0  0  0  0  0  0  0  0  0  0
    7.0619    0.1266    0.0000 C   0  0  0  0  0  0  0  0  0  0  0  0
    6.4783    0.9314    0.0000 C   0  0  0  0  0  0  0  0  0  0  0  0
    5.5321   -0.3734    0.0000 C   0  0  0  0  0  0  0  0  0  0  0  0
    5.5321    0.6266    0.0000 C   0  0  0  0  0  0  0  0  0  0  0  0
    4.6660    1.1266    0.0000 C   0  0  0  0  0  0  0  0  0  0  0  0
    3.8000    0.6266    0.0000 C   0  0  0  0  0  0  0  0  0  0  0  0
    3.8000   -0.3734    0.0000 C   0  0  0  0  0  0  0  0  0  0  0  0
    4.6660    2.1266    0.0000 C   0  0  0  0  0  0  0  0  0  0  0  0
    2.9061    1.1613    0.0000 C   0  0  0  0  0  0  0  0  0  0  0  0
    2.9061   -0.9080    0.0000 C   0  0  0  0  0  0  0  0  0  0  0  0
    2.0000    0.6475    0.0000 C   0  0  0  0  0  0  0  0  0  0  0  0
    2.0000   -0.3942    0.0000 C   0  0  0  0  0  0  0  0  0  0  0  0
    5.7411   -2.0246    0.0000 H   0  0  0  0  0  0  0  0  0  0  0  0
    5.7425   -2.8543    0.0000 H   0  0  0  0  0  0  0  0  0  0  0  0
    8.3572   -1.9997    0.0000 H   0  0  0  0  0  0  0  0  0  0  0  0
    7.8684   -1.3293    0.0000 H   0  0  0  0  0  0  0  0  0  0  0  0
    6.2553   -3.5576    0.0000 H   0  0  0  0  0  0  0  0  0  0  0  0
    7.0449   -3.8126    0.0000 H   0  0  0  0  0  0  0  0  0  0  0  0
    7.8722   -3.5422    0.0000 H   0  0  0  0  0  0  0  0  0  0  0  0
    8.3588   -2.8701    0.0000 H   0  0  0  0  0  0  0  0  0  0  0  0
    7.5228   -0.2881    0.0000 H   0  0  0  0  0  0  0  0  0  0  0  0
    7.5228    0.5414    0.0000 H   0  0  0  0  0  0  0  0  0  0  0  0
    7.0157    1.2406    0.0000 H   0  0  0  0  0  0  0  0  0  0  0  0
    6.2272    1.4983    0.0000 H   0  0  0  0  0  0  0  0  0  0  0  0
    2.9132    1.7813    0.0000 H   0  0  0  0  0  0  0  0  0  0  0  0
    2.9132   -1.5280    0.0000 H   0  0  0  0  0  0  0  0  0  0  0  0
    1.4643    0.9595    0.0000 H   0  0  0  0  0  0  0  0  0  0  0  0
    1.4643   -0.7062    0.0000 H   0  0  0  0  0  0  0  0  0  0  0  0
    3.8000    3.2466    0.0000 H   0  0  0  0  0  0  0  0  0  0  0  0
  1 17  1  0  0  0  0
  1 38  1  0  0  0  0
  2 17  2  0  0  0  0
  3 12  2  0  0  0  0
  3 16  1  0  0  0  0
  4  5  2  0  0  0  0
  4  6  1  0  0  0  0
  4  7  1  0  0  0  0
  5 10  1  0  0  0  0
  5 12  1  0  0  0  0
  6  8  1  0  0  0  0
  6 22  1  0  0  0  0
  6 23  1  0  0  0  0
  7  9  1  0  0  0  0
  7 24  1  0  0  0  0
  7 25  1  0  0  0  0
  8  9  1  0  0  0  0
  8 26  1  0  0  0  0
  8 27  1  0  0  0  0
  9 28  1  0  0  0  0
  9 29  1  0  0  0  0
 10 11  1  0  0  0  0
 10 30  1  0  0  0  0
 10 31  1  0  0  0  0
 11 13  1  0  0  0  0
 11 32  1  0  0  0  0
 11 33  1  0  0  0  0
 12 13  1  0  0  0  0
 13 14  2  0  0  0  0
 14 15  1  0  0  0  0
 14 17  1  0  0  0  0
 15 16  1  0  0  0  0
 15 18  2  0  0  0  0
 16 19  2  0  0  0  0
 18 20  1  0  0  0  0
 18 34  1  0  0  0  0
 19 21  1  0  0  0  0
 19 35  1  0  0  0  0
 20 21  2  0  0  0  0
 20 36  1  0  0  0  0
 21 37  1  0  0  0  0
M  END
> <PUBCHEM_COMPOUND_CID>
4982682

> <PUBCHEM_COMPOUND_CANONICALIZED>
1

> <PUBCHEM_CACTVS_COMPLEXITY>
462

> <PUBCHEM_CACTVS_HBOND_ACCEPTOR>
3

> <PUBCHEM_CACTVS_HBOND_DONOR>
1

> <PUBCHEM_CACTVS_ROTATABLE_BOND>
1

> <PUBCHEM_CACTVS_SUBSKEYS>
AAADceB6MAAAAAAAAAAAAAAAAAAAAYMAAAA8QAAAAAAAAFix8AAAHgAACAAADAiBngAwyPIIEgCoAyTyTACCgCAlAiAImCEwbNgIJvLAlZGEcQhkwAHI2Qe8yOCOgAAAAAACAAAAAAAAAAQAAAAAAQAAAA==

> <PUBCHEM_IUPAC_OPENEYE_NAME>
3-cyclopentylidene-1,2-dihydrocyclopenta[b]quinoline-9-carboxylic acid

> <PUBCHEM_IUPAC_CAS_NAME>
3-cyclopentylidene-1,2-dihydrocyclopenta[b]quinoline-9-carboxylic acid

> <PUBCHEM_IUPAC_NAME_MARKUP>
3-cyclopentylidene-1,2-dihydrocyclopenta[b]quinoline-9-carboxylic acid

> <PUBCHEM_IUPAC_NAME>
3-cyclopentylidene-1,2-dihydrocyclopenta[b]quinoline-9-carboxylic acid

> <PUBCHEM_IUPAC_SYSTEMATIC_NAME>
3-cyclopentylidene-1,2-dihydrocyclopenta[b]quinoline-9-carboxylic acid

> <PUBCHEM_IUPAC_TRADITIONAL_NAME>
3-cyclopentylidene-1,2-dihydrocyclopenta[b]quinoline-9-carboxylic acid

> <PUBCHEM_IUPAC_INCHI>
InChI=1S/C18H17NO2/c20-18(21)16-13-7-3-4-8-15(13)19-17-12(9-10-14(16)17)11-5-1-2-6-11/h3-4,7-8H,1-2,5-6,9-10H2,(H,20,21)

> <PUBCHEM_IUPAC_INCHIKEY>
UEIRKXUBXCSHJE-UHFFFAOYSA-N

> <PUBCHEM_XLOGP3_AA>
3.3

> <PUBCHEM_EXACT_MASS>
279.125928785

> <PUBCHEM_MOLECULAR_FORMULA>
C18H17NO2

> <PUBCHEM_MOLECULAR_WEIGHT>
279.3

> <PUBCHEM_SMILES>
C1CCC(=C2CCC3=C(C4=CC=CC=C4N=C23)C(=O)O)C1

> <PUBCHEM_OPENEYE_CAN_SMILES>
C1CCC(=C2CCC3=C(C4=CC=CC=C4N=C23)C(=O)O)C1

> <PUBCHEM_OPENEYE_ISO_SMILES>
C1CCC(=C2CCC3=C(C4=CC=CC=C4N=C23)C(=O)O)C1

> <PUBCHEM_CACTVS_TPSA>
50.2

> <PUBCHEM_MONOISOTOPIC_WEIGHT>
279.125928785

> <PUBCHEM_TOTAL_CHARGE>
0

> <PUBCHEM_HEAVY_ATOM_COUNT>
21

> <PUBCHEM_ATOM_DEF_STEREO_COUNT>
0

> <PUBCHEM_ATOM_UDEF_STEREO_COUNT>
0

> <PUBCHEM_BOND_DEF_STEREO_COUNT>
0

> <PUBCHEM_BOND_UDEF_STEREO_COUNT>
0

> <PUBCHEM_ISOTOPIC_ATOM_COUNT>
0

> <PUBCHEM_COMPONENT_COUNT>
1

> <PUBCHEM_CACTVS_TAUTO_COUNT>
-1

> <PUBCHEM_COORDINATE_TYPE>
1
5
255

> <PUBCHEM_BONDANNOTATIONS>
12  13  8
13  14  8
14  15  8
15  16  8
15  18  8
16  19  8
18  20  8
19  21  8
20  21  8
3  12  8
3  16  8

$$$$
