24203043
  -OEChem-03202506322D

 60 66  0     1  0  0  0  0  0999 V2000
    5.2927   -0.0103    0.0000 O   0  0  0  0  0  0  0  0  0  0  0  0
    2.6678   -0.3422    0.0000 O   0  0  0  0  0  0  0  0  0  0  0  0
    5.2462   -2.6557    0.0000 O   0  0  0  0  0  0  0  0  0  0  0  0
    3.2892   -2.2433    0.0000 O   0  0  0  0  0  0  0  0  0  0  0  0
    3.0250    1.3526    0.0000 O   0  0  0  0  0  0  0  0  0  0  0  0
   10.3078   -1.7552    0.0000 O   0  0  0  0  0  0  0  0  0  0  0  0
   10.3078    1.7552    0.0000 O   0  0  0  0  0  0  0  0  0  0  0  0
    6.5819   -1.1671    0.0000 N   0  0  0  0  0  0  0  0  0  0  0  0
    6.5819    1.1671    0.0000 N   0  0  0  0  0  0  0  0  0  0  0  0
   10.5808    0.0000    0.0000 N   0  0  0  0  0  0  0  0  0  0  0  0
    5.6034   -0.9609    0.0000 C   0  0  3  0  0  0  0  0  0  0  0  0
    4.9355   -1.7052    0.0000 C   0  0  3  0  0  0  0  0  0  0  0  0
    3.9570   -1.4990    0.0000 C   0  0  3  0  0  0  0  0  0  0  0  0
    3.6464   -0.5484    0.0000 C   0  0  3  0  0  0  0  0  0  0  0  0
    4.3142    0.1959    0.0000 C   0  0  3  0  0  0  0  0  0  0  0  0
    7.3189   -0.5000    0.0000 C   0  0  0  0  0  0  0  0  0  0  0  0
    8.1849   -1.0000    0.0000 C   0  0  0  0  0  0  0  0  0  0  0  0
    6.9870   -2.0749    0.0000 C   0  0  0  0  0  0  0  0  0  0  0  0
    7.3189    0.5000    0.0000 C   0  0  0  0  0  0  0  0  0  0  0  0
    7.9757   -1.9718    0.0000 C   0  0  0  0  0  0  0  0  0  0  0  0
    8.1849    1.0000    0.0000 C   0  0  0  0  0  0  0  0  0  0  0  0
    9.0509   -0.5000    0.0000 C   0  0  0  0  0  0  0  0  0  0  0  0
    9.0509    0.5000    0.0000 C   0  0  0  0  0  0  0  0  0  0  0  0
    4.0035    1.1464    0.0000 C   0  0  0  0  0  0  0  0  0  0  0  0
    7.9757    1.9718    0.0000 C   0  0  0  0  0  0  0  0  0  0  0  0
    6.5505   -3.0138    0.0000 C   0  0  0  0  0  0  0  0  0  0  0  0
    6.9870    2.0749    0.0000 C   0  0  0  0  0  0  0  0  0  0  0  0
    8.5965   -2.8006    0.0000 C   0  0  0  0  0  0  0  0  0  0  0  0
    9.9972   -0.8047    0.0000 C   0  0  0  0  0  0  0  0  0  0  0  0
    9.9972    0.8047    0.0000 C   0  0  0  0  0  0  0  0  0  0  0  0
    7.1519   -3.8567    0.0000 C   0  0  0  0  0  0  0  0  0  0  0  0
    8.1818   -3.7494    0.0000 C   0  0  0  0  0  0  0  0  0  0  0  0
    8.5965    2.8006    0.0000 C   0  0  0  0  0  0  0  0  0  0  0  0
    6.5505    3.0138    0.0000 C   0  0  0  0  0  0  0  0  0  0  0  0
    2.0000   -1.0865    0.0000 C   0  0  0  0  0  0  0  0  0  0  0  0
    8.1818    3.7494    0.0000 C   0  0  0  0  0  0  0  0  0  0  0  0
    7.1519    3.8567    0.0000 C   0  0  0  0  0  0  0  0  0  0  0  0
    6.0174   -0.4994    0.0000 H   0  0  0  0  0  0  0  0  0  0  0  0
    4.5214   -2.1666    0.0000 H   0  0  0  0  0  0  0  0  0  0  0  0
    3.3503   -1.3711    0.0000 H   0  0  0  0  0  0  0  0  0  0  0  0
    3.2323   -1.0099    0.0000 H   0  0  0  0  0  0  0  0  0  0  0  0
    4.7283    0.6573    0.0000 H   0  0  0  0  0  0  0  0  0  0  0  0
    4.6174    1.2337    0.0000 H   0  0  0  0  0  0  0  0  0  0  0  0
    4.0241    1.7660    0.0000 H   0  0  0  0  0  0  0  0  0  0  0  0
    5.9752    1.0392    0.0000 H   0  0  0  0  0  0  0  0  0  0  0  0
    5.9331   -3.0710    0.0000 H   0  0  0  0  0  0  0  0  0  0  0  0
    4.8321   -3.1172    0.0000 H   0  0  0  0  0  0  0  0  0  0  0  0
    9.2123   -2.7292    0.0000 H   0  0  0  0  0  0  0  0  0  0  0  0
    2.6825   -2.1154    0.0000 H   0  0  0  0  0  0  0  0  0  0  0  0
   11.2008    0.0000    0.0000 H   0  0  0  0  0  0  0  0  0  0  0  0
    6.8970   -4.4219    0.0000 H   0  0  0  0  0  0  0  0  0  0  0  0
    8.5477   -4.2499    0.0000 H   0  0  0  0  0  0  0  0  0  0  0  0
    9.2123    2.7292    0.0000 H   0  0  0  0  0  0  0  0  0  0  0  0
    5.9331    3.0710    0.0000 H   0  0  0  0  0  0  0  0  0  0  0  0
    1.5385   -0.6724    0.0000 H   0  0  0  0  0  0  0  0  0  0  0  0
    1.5859   -1.5480    0.0000 H   0  0  0  0  0  0  0  0  0  0  0  0
    2.4615   -1.5006    0.0000 H   0  0  0  0  0  0  0  0  0  0  0  0
    2.8324    1.9419    0.0000 H   0  0  0  0  0  0  0  0  0  0  0  0
    8.5477    4.2499    0.0000 H   0  0  0  0  0  0  0  0  0  0  0  0
    6.8970    4.4219    0.0000 H   0  0  0  0  0  0  0  0  0  0  0  0
  1 11  1  0  0  0  0
  1 15  1  0  0  0  0
  2 14  1  0  0  0  0
  2 35  1  0  0  0  0
  3 12  1  0  0  0  0
  3 47  1  0  0  0  0
  4 13  1  0  0  0  0
  4 49  1  0  0  0  0
  5 24  1  0  0  0  0
  5 58  1  0  0  0  0
  6 29  2  0  0  0  0
  7 30  2  0  0  0  0
  8 11  1  0  0  0  0
  8 16  1  0  0  0  0
  8 18  1  0  0  0  0
  9 19  1  0  0  0  0
  9 27  1  0  0  0  0
  9 45  1  0  0  0  0
 10 29  1  0  0  0  0
 10 30  1  0  0  0  0
 10 50  1  0  0  0  0
 11 12  1  0  0  0  0
 11 38  1  0  0  0  0
 12 13  1  0  0  0  0
 12 39  1  0  0  0  0
 13 14  1  0  0  0  0
 13 40  1  0  0  0  0
 14 15  1  0  0  0  0
 14 41  1  0  0  0  0
 15 24  1  0  0  0  0
 15 42  1  0  0  0  0
 16 17  1  0  0  0  0
 16 19  2  0  0  0  0
 17 20  1  0  0  0  0
 17 22  2  0  0  0  0
 18 20  1  0  0  0  0
 18 26  2  0  0  0  0
 19 21  1  0  0  0  0
 20 28  2  0  0  0  0
 21 23  2  0  0  0  0
 21 25  1  0  0  0  0
 22 23  1  0  0  0  0
 22 29  1  0  0  0  0
 23 30  1  0  0  0  0
 24 43  1  0  0  0  0
 24 44  1  0  0  0  0
 25 27  1  0  0  0  0
 25 33  2  0  0  0  0
 26 31  1  0  0  0  0
 26 46  1  0  0  0  0
 27 34  2  0  0  0  0
 28 32  1  0  0  0  0
 28 48  1  0  0  0  0
 31 32  2  0  0  0  0
 31 51  1  0  0  0  0
 32 52  1  0  0  0  0
 33 36  1  0  0  0  0
 33 53  1  0  0  0  0
 34 37  1  0  0  0  0
 34 54  1  0  0  0  0
 35 55  1  0  0  0  0
 35 56  1  0  0  0  0
 35 57  1  0  0  0  0
 36 37  2  0  0  0  0
 36 59  1  0  0  0  0
 37 60  1  0  0  0  0
M  END
> <PUBCHEM_COMPOUND_CID>
24203043

> <PUBCHEM_COMPOUND_CANONICALIZED>
1

> <PUBCHEM_CACTVS_COMPLEXITY>
936

> <PUBCHEM_CACTVS_HBOND_ACCEPTOR>
7

> <PUBCHEM_CACTVS_HBOND_DONOR>
5

> <PUBCHEM_CACTVS_ROTATABLE_BOND>
3

> <PUBCHEM_CACTVS_SUBSKEYS>
AAADceB7OAAAAAAAAAAAAAAAAAAAAWLFgAA0YMEAAAAAAFgB/gAAHgAQCAAADBzhngYywPPNlgCoAyVyVACCgCQlEiAI2SE4dNgLcPLAlZGeYQhnlCDbyQf9+caeyAACQAASACCQAASAACQAQAAAAAAAAA==

> <PUBCHEM_IUPAC_OPENEYE_NAME>
3-[3,4-dihydroxy-6-(hydroxymethyl)-5-methoxy-tetrahydropyran-2-yl]-3,13,23-triazahexacyclo[14.7.0.02,10.04,9.011,15.017,22]tricosa-1,4,6,8,10,15,17,19,21-nonaene-12,14-dione

> <PUBCHEM_IUPAC_CAS_NAME>
3-[3,4-dihydroxy-6-(hydroxymethyl)-5-methoxy-2-oxanyl]-3,13,23-triazahexacyclo[14.7.0.02,10.04,9.011,15.017,22]tricosa-1,4,6,8,10,15,17,19,21-nonaene-12,14-dione

> <PUBCHEM_IUPAC_NAME_MARKUP>
3-[3,4-dihydroxy-6-(hydroxymethyl)-5-methoxyoxan-2-yl]-3,13,23-triazahexacyclo[14.7.0.0<SUP>2,10</SUP>.0<SUP>4,9</SUP>.0<SUP>11,15</SUP>.0<SUP>17,22</SUP>]tricosa-1,4,6,8,10,15,17,19,21-nonaene-12,14-dione

> <PUBCHEM_IUPAC_NAME>
3-[3,4-dihydroxy-6-(hydroxymethyl)-5-methoxyoxan-2-yl]-3,13,23-triazahexacyclo[14.7.0.02,10.04,9.011,15.017,22]tricosa-1,4,6,8,10,15,17,19,21-nonaene-12,14-dione

> <PUBCHEM_IUPAC_SYSTEMATIC_NAME>
3-[6-(hydroxymethyl)-5-methoxy-3,4-bis(oxidanyl)oxan-2-yl]-3,13,23-triazahexacyclo[14.7.0.02,10.04,9.011,15.017,22]tricosa-1,4,6,8,10,15,17,19,21-nonaene-12,14-dione

> <PUBCHEM_IUPAC_TRADITIONAL_NAME>
3-(3,4-dihydroxy-5-methoxy-6-methylol-tetrahydropyran-2-yl)-3,13,23-triazahexacyclo[14.7.0.02,10.04,9.011,15.017,22]tricosa-1,4,6,8,10,15,17,19,21-nonaene-12,14-quinone

> <PUBCHEM_IUPAC_INCHI>
InChI=1S/C27H23N3O7/c1-36-24-15(10-31)37-27(23(33)22(24)32)30-14-9-5-3-7-12(14)17-19-18(25(34)29-26(19)35)16-11-6-2-4-8-13(11)28-20(16)21(17)30/h2-9,15,22-24,27-28,31-33H,10H2,1H3,(H,29,34,35)

> <PUBCHEM_IUPAC_INCHIKEY>
JNMXCWUKDUQJFF-UHFFFAOYSA-N

> <PUBCHEM_XLOGP3_AA>
1.4

> <PUBCHEM_EXACT_MASS>
501.15360008

> <PUBCHEM_MOLECULAR_FORMULA>
C27H23N3O7

> <PUBCHEM_MOLECULAR_WEIGHT>
501.5

> <PUBCHEM_SMILES>
COC1C(OC(C(C1O)O)N2C3=CC=CC=C3C4=C5C(=C6C7=CC=CC=C7NC6=C42)C(=O)NC5=O)CO

> <PUBCHEM_OPENEYE_CAN_SMILES>
COC1C(OC(C(C1O)O)N2C3=CC=CC=C3C4=C5C(=C6C7=CC=CC=C7NC6=C42)C(=O)NC5=O)CO

> <PUBCHEM_OPENEYE_ISO_SMILES>
COC1C(OC(C(C1O)O)N2C3=CC=CC=C3C4=C5C(=C6C7=CC=CC=C7NC6=C42)C(=O)NC5=O)CO

> <PUBCHEM_CACTVS_TPSA>
146

> <PUBCHEM_MONOISOTOPIC_WEIGHT>
501.15360008

> <PUBCHEM_TOTAL_CHARGE>
0

> <PUBCHEM_HEAVY_ATOM_COUNT>
37

> <PUBCHEM_ATOM_DEF_STEREO_COUNT>
0

> <PUBCHEM_ATOM_UDEF_STEREO_COUNT>
5

> <PUBCHEM_BOND_DEF_STEREO_COUNT>
0

> <PUBCHEM_BOND_UDEF_STEREO_COUNT>
0

> <PUBCHEM_ISOTOPIC_ATOM_COUNT>
0

> <PUBCHEM_COMPONENT_COUNT>
1

> <PUBCHEM_CACTVS_TAUTO_COUNT>
-1

> <PUBCHEM_COORDINATE_TYPE>
1
5
255

> <PUBCHEM_BONDANNOTATIONS>
15  24  3
16  17  8
16  19  8
17  20  8
17  22  8
18  20  8
18  26  8
19  21  8
14  2  3
20  28  8
21  23  8
21  25  8
22  23  8
25  27  8
25  33  8
26  31  8
27  34  8
28  32  8
12  3  3
31  32  8
33  36  8
34  37  8
36  37  8
13  4  3
11  8  3
8  16  8
8  18  8
9  19  8
9  27  8

$$$$
