10231458
  -OEChem-03202500072D

 81 85  0     0  0  0  0  0  0999 V2000
    2.0000    7.7770    0.0000 O   0  0  0  0  0  0  0  0  0  0  0  0
    5.4641    3.7770    0.0000 O   0  0  0  0  0  0  0  0  0  0  0  0
    8.0381   -2.7473    0.0000 O   0  0  0  0  0  0  0  0  0  0  0  0
    5.4641    1.7770    0.0000 O   0  0  0  0  0  0  0  0  0  0  0  0
    9.7238   -6.7671    0.0000 O   0  0  0  0  0  0  0  0  0  0  0  0
    8.9446    0.7424    0.0000 N   0  0  0  0  0  0  0  0  0  0  0  0
    8.9214   -1.2574    0.0000 N   0  0  0  0  0  0  0  0  0  0  0  0
    3.7320    6.7770    0.0000 N   0  0  0  0  0  0  0  0  0  0  0  0
    9.8622    2.2562    0.0000 N   0  0  0  0  0  0  0  0  0  0  0  0
    9.7700   -2.7674    0.0000 N   0  0  0  0  0  0  0  0  0  0  0  0
    8.9561    3.8117    0.0000 N   0  0  0  0  0  0  0  0  0  0  0  0
    9.8047    0.2324    0.0000 C   0  0  0  0  0  0  0  0  0  0  0  0
    8.0728    0.2525    0.0000 C   0  0  0  0  0  0  0  0  0  0  0  0
    9.7932   -0.7675    0.0000 C   0  0  0  0  0  0  0  0  0  0  0  0
    8.0612   -0.7475    0.0000 C   0  0  0  0  0  0  0  0  0  0  0  0
    8.9561    1.7424    0.0000 C   0  0  0  0  0  0  0  0  0  0  0  0
    4.5981    6.2770    0.0000 C   0  0  0  0  0  0  0  0  0  0  0  0
    2.8660    6.2770    0.0000 C   0  0  0  0  0  0  0  0  0  0  0  0
    3.7320    7.7770    0.0000 C   0  0  0  0  0  0  0  0  0  0  0  0
    8.0622    2.2770    0.0000 C   0  0  0  0  0  0  0  0  0  0  0  0
    4.5981    5.2770    0.0000 C   0  0  0  0  0  0  0  0  0  0  0  0
    2.0000    6.7770    0.0000 C   0  0  0  0  0  0  0  0  0  0  0  0
    2.8660    8.2770    0.0000 C   0  0  0  0  0  0  0  0  0  0  0  0
    8.9099   -2.2574    0.0000 C   0  0  0  0  0  0  0  0  0  0  0  0
    5.4641    4.7770    0.0000 C   0  0  0  0  0  0  0  0  0  0  0  0
    8.0622    3.2770    0.0000 C   0  0  0  0  0  0  0  0  0  0  0  0
    7.1962    1.7770    0.0000 C   0  0  0  0  0  0  0  0  0  0  0  0
    6.3301    3.2770    0.0000 C   0  0  0  0  0  0  0  0  0  0  0  0
    7.1962    3.7770    0.0000 C   0  0  0  0  0  0  0  0  0  0  0  0
    6.3301    2.2770    0.0000 C   0  0  0  0  0  0  0  0  0  0  0  0
    9.8622    3.2978    0.0000 C   0  0  0  0  0  0  0  0  0  0  0  0
    9.7585   -3.7673    0.0000 C   0  0  0  0  0  0  0  0  0  0  0  0
    8.8867   -4.2572    0.0000 C   0  0  0  0  0  0  0  0  0  0  0  0
   10.6187   -4.2773    0.0000 C   0  0  0  0  0  0  0  0  0  0  0  0
    8.8752   -5.2572    0.0000 C   0  0  0  0  0  0  0  0  0  0  0  0
   10.6071   -5.2772    0.0000 C   0  0  0  0  0  0  0  0  0  0  0  0
    4.5981    2.2770    0.0000 C   0  0  0  0  0  0  0  0  0  0  0  0
    9.7354   -5.7672    0.0000 C   0  0  0  0  0  0  0  0  0  0  0  0
   10.5840   -7.2771    0.0000 C   0  0  0  0  0  0  0  0  0  0  0  0
   10.5724   -8.2770    0.0000 C   0  0  0  0  0  0  0  0  0  0  0  0
   11.4557   -6.7871    0.0000 C   0  0  0  0  0  0  0  0  0  0  0  0
   10.4140    0.1177    0.0000 H   0  0  0  0  0  0  0  0  0  0  0  0
   10.0235    0.8126    0.0000 H   0  0  0  0  0  0  0  0  0  0  0  0
    7.8675    0.8375    0.0000 H   0  0  0  0  0  0  0  0  0  0  0  0
    7.4610    0.1519    0.0000 H   0  0  0  0  0  0  0  0  0  0  0  0
    9.9985   -1.3525    0.0000 H   0  0  0  0  0  0  0  0  0  0  0  0
   10.4050   -0.6669    0.0000 H   0  0  0  0  0  0  0  0  0  0  0  0
    7.4520   -0.6328    0.0000 H   0  0  0  0  0  0  0  0  0  0  0  0
    7.8425   -1.3276    0.0000 H   0  0  0  0  0  0  0  0  0  0  0  0
    5.2087    6.1694    0.0000 H   0  0  0  0  0  0  0  0  0  0  0  0
    4.8101    6.8596    0.0000 H   0  0  0  0  0  0  0  0  0  0  0  0
    2.4675    5.8021    0.0000 H   0  0  0  0  0  0  0  0  0  0  0  0
    3.2646    5.8021    0.0000 H   0  0  0  0  0  0  0  0  0  0  0  0
    4.3426    7.6694    0.0000 H   0  0  0  0  0  0  0  0  0  0  0  0
    3.9441    8.3596    0.0000 H   0  0  0  0  0  0  0  0  0  0  0  0
    3.9875    5.3847    0.0000 H   0  0  0  0  0  0  0  0  0  0  0  0
    4.3860    4.6944    0.0000 H   0  0  0  0  0  0  0  0  0  0  0  0
    1.3894    6.8847    0.0000 H   0  0  0  0  0  0  0  0  0  0  0  0
    1.7880    6.1944    0.0000 H   0  0  0  0  0  0  0  0  0  0  0  0
    3.2646    8.7520    0.0000 H   0  0  0  0  0  0  0  0  0  0  0  0
    2.4675    8.7520    0.0000 H   0  0  0  0  0  0  0  0  0  0  0  0
    6.0747    4.6694    0.0000 H   0  0  0  0  0  0  0  0  0  0  0  0
    5.6762    5.3596    0.0000 H   0  0  0  0  0  0  0  0  0  0  0  0
    7.1962    1.1570    0.0000 H   0  0  0  0  0  0  0  0  0  0  0  0
    7.1962    4.3970    0.0000 H   0  0  0  0  0  0  0  0  0  0  0  0
   10.3105   -2.4636    0.0000 H   0  0  0  0  0  0  0  0  0  0  0  0
   10.3979    3.6099    0.0000 H   0  0  0  0  0  0  0  0  0  0  0  0
    8.3534   -3.9411    0.0000 H   0  0  0  0  0  0  0  0  0  0  0  0
   11.1592   -3.9735    0.0000 H   0  0  0  0  0  0  0  0  0  0  0  0
    8.3347   -5.5610    0.0000 H   0  0  0  0  0  0  0  0  0  0  0  0
   11.1404   -5.5934    0.0000 H   0  0  0  0  0  0  0  0  0  0  0  0
    4.9081    2.8140    0.0000 H   0  0  0  0  0  0  0  0  0  0  0  0
    4.0611    2.5870    0.0000 H   0  0  0  0  0  0  0  0  0  0  0  0
    4.2881    1.7401    0.0000 H   0  0  0  0  0  0  0  0  0  0  0  0
   10.0435   -7.5808    0.0000 H   0  0  0  0  0  0  0  0  0  0  0  0
    9.9525   -8.2698    0.0000 H   0  0  0  0  0  0  0  0  0  0  0  0
   10.5653   -8.8970    0.0000 H   0  0  0  0  0  0  0  0  0  0  0  0
   11.1924   -8.2842    0.0000 H   0  0  0  0  0  0  0  0  0  0  0  0
   11.7595   -7.3276    0.0000 H   0  0  0  0  0  0  0  0  0  0  0  0
   11.9962   -6.4834    0.0000 H   0  0  0  0  0  0  0  0  0  0  0  0
   11.1520   -6.2466    0.0000 H   0  0  0  0  0  0  0  0  0  0  0  0
  1 22  1  0  0  0  0
  1 23  1  0  0  0  0
  2 25  1  0  0  0  0
  2 28  1  0  0  0  0
  3 24  2  0  0  0  0
  4 30  1  0  0  0  0
  4 37  1  0  0  0  0
  5 38  1  0  0  0  0
  5 39  1  0  0  0  0
  6 12  1  0  0  0  0
  6 13  1  0  0  0  0
  6 16  1  0  0  0  0
  7 14  1  0  0  0  0
  7 15  1  0  0  0  0
  7 24  1  0  0  0  0
  8 17  1  0  0  0  0
  8 18  1  0  0  0  0
  8 19  1  0  0  0  0
  9 16  2  0  0  0  0
  9 31  1  0  0  0  0
 10 24  1  0  0  0  0
 10 32  1  0  0  0  0
 10 66  1  0  0  0  0
 11 26  1  0  0  0  0
 11 31  2  0  0  0  0
 12 14  1  0  0  0  0
 12 42  1  0  0  0  0
 12 43  1  0  0  0  0
 13 15  1  0  0  0  0
 13 44  1  0  0  0  0
 13 45  1  0  0  0  0
 14 46  1  0  0  0  0
 14 47  1  0  0  0  0
 15 48  1  0  0  0  0
 15 49  1  0  0  0  0
 16 20  1  0  0  0  0
 17 21  1  0  0  0  0
 17 50  1  0  0  0  0
 17 51  1  0  0  0  0
 18 22  1  0  0  0  0
 18 52  1  0  0  0  0
 18 53  1  0  0  0  0
 19 23  1  0  0  0  0
 19 54  1  0  0  0  0
 19 55  1  0  0  0  0
 20 26  1  0  0  0  0
 20 27  2  0  0  0  0
 21 25  1  0  0  0  0
 21 56  1  0  0  0  0
 21 57  1  0  0  0  0
 22 58  1  0  0  0  0
 22 59  1  0  0  0  0
 23 60  1  0  0  0  0
 23 61  1  0  0  0  0
 25 62  1  0  0  0  0
 25 63  1  0  0  0  0
 26 29  2  0  0  0  0
 27 30  1  0  0  0  0
 27 64  1  0  0  0  0
 28 29  1  0  0  0  0
 28 30  2  0  0  0  0
 29 65  1  0  0  0  0
 31 67  1  0  0  0  0
 32 33  2  0  0  0  0
 32 34  1  0  0  0  0
 33 35  1  0  0  0  0
 33 68  1  0  0  0  0
 34 36  2  0  0  0  0
 34 69  1  0  0  0  0
 35 38  2  0  0  0  0
 35 70  1  0  0  0  0
 36 38  1  0  0  0  0
 36 71  1  0  0  0  0
 37 72  1  0  0  0  0
 37 73  1  0  0  0  0
 37 74  1  0  0  0  0
 39 40  1  0  0  0  0
 39 41  1  0  0  0  0
 39 75  1  0  0  0  0
 40 76  1  0  0  0  0
 40 77  1  0  0  0  0
 40 78  1  0  0  0  0
 41 79  1  0  0  0  0
 41 80  1  0  0  0  0
 41 81  1  0  0  0  0
M  END
> <PUBCHEM_COMPOUND_CID>
10231458

> <PUBCHEM_COMPOUND_CANONICALIZED>
1

> <PUBCHEM_CACTVS_COMPLEXITY>
785

> <PUBCHEM_CACTVS_HBOND_ACCEPTOR>
9

> <PUBCHEM_CACTVS_HBOND_DONOR>
1

> <PUBCHEM_CACTVS_ROTATABLE_BOND>
10

> <PUBCHEM_CACTVS_SUBSKEYS>
AAADcfB7uAAAAAAAAAAAAAAAAAAAAAAAAAA8eLECAAAAAACx9AAAHgAQAAAADBzhngY39vfIFACoAyZjdACCiCkxIqAJ2CA+7JiPbqLE+duXPCru1hva6Cew0BMOIEABAgACQABAgAIEAASAAAAAAAAAAA==

> <PUBCHEM_IUPAC_OPENEYE_NAME>
N-(4-isopropoxyphenyl)-4-[6-methoxy-7-(3-morpholinopropoxy)quinazolin-4-yl]piperazine-1-carboxamide

> <PUBCHEM_IUPAC_CAS_NAME>
4-[6-methoxy-7-[3-(4-morpholinyl)propoxy]-4-quinazolinyl]-N-(4-propan-2-yloxyphenyl)-1-piperazinecarboxamide

> <PUBCHEM_IUPAC_NAME_MARKUP>
4-[6-methoxy-7-(3-morpholin-4-ylpropoxy)quinazolin-4-yl]-<I>N</I>-(4-propan-2-yloxyphenyl)piperazine-1-carboxamide

> <PUBCHEM_IUPAC_NAME>
4-[6-methoxy-7-(3-morpholin-4-ylpropoxy)quinazolin-4-yl]-N-(4-propan-2-yloxyphenyl)piperazine-1-carboxamide

> <PUBCHEM_IUPAC_SYSTEMATIC_NAME>
4-[6-methoxy-7-(3-morpholin-4-ylpropoxy)quinazolin-4-yl]-N-(4-propan-2-yloxyphenyl)piperazine-1-carboxamide

> <PUBCHEM_IUPAC_TRADITIONAL_NAME>
N-(4-isopropoxyphenyl)-4-[6-methoxy-7-(3-morpholinopropoxy)quinazolin-4-yl]piperazine-1-carboxamide

> <PUBCHEM_IUPAC_INCHI>
InChI=1S/C30H40N6O5/c1-22(2)41-24-7-5-23(6-8-24)33-30(37)36-12-10-35(11-13-36)29-25-19-27(38-3)28(20-26(25)31-21-32-29)40-16-4-9-34-14-17-39-18-15-34/h5-8,19-22H,4,9-18H2,1-3H3,(H,33,37)

> <PUBCHEM_IUPAC_INCHIKEY>
QRJUFNKCBDLAKR-UHFFFAOYSA-N

> <PUBCHEM_XLOGP3_AA>
3.4

> <PUBCHEM_EXACT_MASS>
564.30601840

> <PUBCHEM_MOLECULAR_FORMULA>
C30H40N6O5

> <PUBCHEM_MOLECULAR_WEIGHT>
564.7

> <PUBCHEM_SMILES>
CC(C)OC1=CC=C(C=C1)NC(=O)N2CCN(CC2)C3=NC=NC4=CC(=C(C=C43)OC)OCCCN5CCOCC5

> <PUBCHEM_OPENEYE_CAN_SMILES>
CC(C)OC1=CC=C(C=C1)NC(=O)N2CCN(CC2)C3=NC=NC4=CC(=C(C=C43)OC)OCCCN5CCOCC5

> <PUBCHEM_OPENEYE_ISO_SMILES>
CC(C)OC1=CC=C(C=C1)NC(=O)N2CCN(CC2)C3=NC=NC4=CC(=C(C=C43)OC)OCCCN5CCOCC5

> <PUBCHEM_CACTVS_TPSA>
102

> <PUBCHEM_MONOISOTOPIC_WEIGHT>
564.30601840

> <PUBCHEM_TOTAL_CHARGE>
0

> <PUBCHEM_HEAVY_ATOM_COUNT>
41

> <PUBCHEM_ATOM_DEF_STEREO_COUNT>
0

> <PUBCHEM_ATOM_UDEF_STEREO_COUNT>
0

> <PUBCHEM_BOND_DEF_STEREO_COUNT>
0

> <PUBCHEM_BOND_UDEF_STEREO_COUNT>
0

> <PUBCHEM_ISOTOPIC_ATOM_COUNT>
0

> <PUBCHEM_COMPONENT_COUNT>
1

> <PUBCHEM_CACTVS_TAUTO_COUNT>
-1

> <PUBCHEM_COORDINATE_TYPE>
1
5
255

> <PUBCHEM_BONDANNOTATIONS>
11  26  8
11  31  8
16  20  8
20  26  8
20  27  8
26  29  8
27  30  8
28  29  8
28  30  8
32  33  8
32  34  8
33  35  8
34  36  8
35  38  8
36  38  8
9  16  8
9  31  8

$$$$
