44427518
  -OEChem-03202506052D

 72 77  0     0  0  0  0  0  0999 V2000
   18.1933   -2.9546    0.0000 O   0  0  0  0  0  0  0  0  0  0  0  0
    7.3179    3.2530    0.0000 O   0  0  0  0  0  0  0  0  0  0  0  0
   12.6061   -0.1647    0.0000 O   0  0  0  0  0  0  0  0  0  0  0  0
    2.2263   -0.6093    0.0000 O   0  0  0  0  0  0  0  0  0  0  0  0
   16.7219   -1.5999    0.0000 N   0  0  0  0  0  0  0  0  0  0  0  0
    8.2517    0.1614    0.0000 N   0  0  0  0  0  0  0  0  0  0  0  0
    8.7518    2.3521    0.0000 N   0  0  0  0  0  0  0  0  0  0  0  0
   13.7793    1.1095    0.0000 N   0  0  0  0  0  0  0  0  0  0  0  0
    2.6788   -2.5575    0.0000 N   0  0  0  0  0  0  0  0  0  0  0  0
   16.5032   -2.5757    0.0000 C   0  0  0  0  0  0  0  0  0  0  0  0
   17.6764   -1.3015    0.0000 C   0  0  0  0  0  0  0  0  0  0  0  0
   17.2388   -3.2530    0.0000 C   0  0  0  0  0  0  0  0  0  0  0  0
   18.4120   -1.9788    0.0000 C   0  0  0  0  0  0  0  0  0  0  0  0
   15.9863   -0.9226    0.0000 C   0  0  0  0  0  0  0  0  0  0  0  0
   16.2050    0.0532    0.0000 C   0  0  0  0  0  0  0  0  0  0  0  0
   15.0318   -1.2210    0.0000 C   0  0  0  0  0  0  0  0  0  0  0  0
    9.1527    0.5953    0.0000 C   0  0  0  0  0  0  0  0  0  0  0  0
    9.3752    1.5702    0.0000 C   0  0  0  0  0  0  0  0  0  0  0  0
    7.3508    0.5953    0.0000 C   0  0  0  0  0  0  0  0  0  0  0  0
    7.1283    1.5702    0.0000 C   0  0  0  0  0  0  0  0  0  0  0  0
   11.1348    1.1900    0.0000 C   0  0  0  0  0  0  0  0  0  0  0  0
   14.5149    0.4321    0.0000 C   0  0  0  0  0  0  0  0  0  0  0  0
   10.3657    1.8926    0.0000 C   0  0  0  0  0  0  0  0  0  0  0  0
   12.0892    1.4884    0.0000 C   0  0  0  0  0  0  0  0  0  0  0  0
   15.4694    0.7306    0.0000 C   0  0  0  0  0  0  0  0  0  0  0  0
   14.2962   -0.5436    0.0000 C   0  0  0  0  0  0  0  0  0  0  0  0
    5.6005    0.1745    0.0000 C   0  0  0  0  0  0  0  0  0  0  0  0
    6.5982   -0.1249    0.0000 C   0  0  0  0  0  0  0  0  0  0  0  0
    9.9053   -0.1249    0.0000 C   0  0  0  0  0  0  0  0  0  0  0  0
    7.7518    2.3521    0.0000 C   0  0  0  0  0  0  0  0  0  0  0  0
   10.9030    0.1745    0.0000 C   0  0  0  0  0  0  0  0  0  0  0  0
    6.1378    1.8926    0.0000 C   0  0  0  0  0  0  0  0  0  0  0  0
   12.8248    0.8110    0.0000 C   0  0  0  0  0  0  0  0  0  0  0  0
    5.3688    1.1900    0.0000 C   0  0  0  0  0  0  0  0  0  0  0  0
    4.8701   -0.5085    0.0000 C   0  0  0  0  0  0  0  0  0  0  0  0
    3.9134   -0.2174    0.0000 C   0  0  0  0  0  0  0  0  0  0  0  0
    5.0964   -1.4826    0.0000 C   0  0  0  0  0  0  0  0  0  0  0  0
    3.1830   -0.9004    0.0000 C   0  0  0  0  0  0  0  0  0  0  0  0
    4.3659   -2.1656    0.0000 C   0  0  0  0  0  0  0  0  0  0  0  0
    3.4092   -1.8745    0.0000 C   0  0  0  0  0  0  0  0  0  0  0  0
    2.0000    0.3647    0.0000 C   0  0  0  0  0  0  0  0  0  0  0  0
   15.9309   -2.3371    0.0000 H   0  0  0  0  0  0  0  0  0  0  0  0
   16.1688   -3.0978    0.0000 H   0  0  0  0  0  0  0  0  0  0  0  0
   18.1691   -0.9252    0.0000 H   0  0  0  0  0  0  0  0  0  0  0  0
   17.3914   -0.7509    0.0000 H   0  0  0  0  0  0  0  0  0  0  0  0
   16.7460   -3.6293    0.0000 H   0  0  0  0  0  0  0  0  0  0  0  0
   17.5238   -3.8037    0.0000 H   0  0  0  0  0  0  0  0  0  0  0  0
   18.9843   -2.2175    0.0000 H   0  0  0  0  0  0  0  0  0  0  0  0
   18.7464   -1.4567    0.0000 H   0  0  0  0  0  0  0  0  0  0  0  0
   16.7968    0.2382    0.0000 H   0  0  0  0  0  0  0  0  0  0  0  0
   14.8962   -1.8260    0.0000 H   0  0  0  0  0  0  0  0  0  0  0  0
    8.2517   -0.4586    0.0000 H   0  0  0  0  0  0  0  0  0  0  0  0
   10.4967    2.4986    0.0000 H   0  0  0  0  0  0  0  0  0  0  0  0
   12.5820    1.8646    0.0000 H   0  0  0  0  0  0  0  0  0  0  0  0
   11.8042    2.0390    0.0000 H   0  0  0  0  0  0  0  0  0  0  0  0
   15.6050    1.3355    0.0000 H   0  0  0  0  0  0  0  0  0  0  0  0
   13.7044   -0.7287    0.0000 H   0  0  0  0  0  0  0  0  0  0  0  0
    6.7432   -0.7277    0.0000 H   0  0  0  0  0  0  0  0  0  0  0  0
    9.7603   -0.7277    0.0000 H   0  0  0  0  0  0  0  0  0  0  0  0
    9.0208    2.9107    0.0000 H   0  0  0  0  0  0  0  0  0  0  0  0
   11.3558   -0.2490    0.0000 H   0  0  0  0  0  0  0  0  0  0  0  0
    6.0068    2.4986    0.0000 H   0  0  0  0  0  0  0  0  0  0  0  0
   13.9149    1.7145    0.0000 H   0  0  0  0  0  0  0  0  0  0  0  0
    4.7770    1.3750    0.0000 H   0  0  0  0  0  0  0  0  0  0  0  0
    3.7731    0.3865    0.0000 H   0  0  0  0  0  0  0  0  0  0  0  0
    5.6895   -1.6630    0.0000 H   0  0  0  0  0  0  0  0  0  0  0  0
    4.5062   -2.7695    0.0000 H   0  0  0  0  0  0  0  0  0  0  0  0
    2.8191   -3.1614    0.0000 H   0  0  0  0  0  0  0  0  0  0  0  0
    2.0857   -2.3770    0.0000 H   0  0  0  0  0  0  0  0  0  0  0  0
    2.6039    0.5050    0.0000 H   0  0  0  0  0  0  0  0  0  0  0  0
    1.8597    0.9687    0.0000 H   0  0  0  0  0  0  0  0  0  0  0  0
    1.3961    0.2244    0.0000 H   0  0  0  0  0  0  0  0  0  0  0  0
  1 12  1  0  0  0  0
  1 13  1  0  0  0  0
  2 30  2  0  0  0  0
  3 33  2  0  0  0  0
  4 38  1  0  0  0  0
  4 41  1  0  0  0  0
  5 10  1  0  0  0  0
  5 11  1  0  0  0  0
  5 14  1  0  0  0  0
  6 17  1  0  0  0  0
  6 19  1  0  0  0  0
  6 52  1  0  0  0  0
  7 18  1  0  0  0  0
  7 30  1  0  0  0  0
  7 60  1  0  0  0  0
  8 22  1  0  0  0  0
  8 33  1  0  0  0  0
  8 63  1  0  0  0  0
  9 40  1  0  0  0  0
  9 68  1  0  0  0  0
  9 69  1  0  0  0  0
 10 12  1  0  0  0  0
 10 42  1  0  0  0  0
 10 43  1  0  0  0  0
 11 13  1  0  0  0  0
 11 44  1  0  0  0  0
 11 45  1  0  0  0  0
 12 46  1  0  0  0  0
 12 47  1  0  0  0  0
 13 48  1  0  0  0  0
 13 49  1  0  0  0  0
 14 15  2  0  0  0  0
 14 16  1  0  0  0  0
 15 25  1  0  0  0  0
 15 50  1  0  0  0  0
 16 26  2  0  0  0  0
 16 51  1  0  0  0  0
 17 18  2  0  0  0  0
 17 29  1  0  0  0  0
 18 23  1  0  0  0  0
 19 20  2  0  0  0  0
 19 28  1  0  0  0  0
 20 30  1  0  0  0  0
 20 32  1  0  0  0  0
 21 23  2  0  0  0  0
 21 24  1  0  0  0  0
 21 31  1  0  0  0  0
 22 25  2  0  0  0  0
 22 26  1  0  0  0  0
 23 53  1  0  0  0  0
 24 33  1  0  0  0  0
 24 54  1  0  0  0  0
 24 55  1  0  0  0  0
 25 56  1  0  0  0  0
 26 57  1  0  0  0  0
 27 28  2  0  0  0  0
 27 34  1  0  0  0  0
 27 35  1  0  0  0  0
 28 58  1  0  0  0  0
 29 31  2  0  0  0  0
 29 59  1  0  0  0  0
 31 61  1  0  0  0  0
 32 34  2  0  0  0  0
 32 62  1  0  0  0  0
 34 64  1  0  0  0  0
 35 36  2  0  0  0  0
 35 37  1  0  0  0  0
 36 38  1  0  0  0  0
 36 65  1  0  0  0  0
 37 39  2  0  0  0  0
 37 66  1  0  0  0  0
 38 40  2  0  0  0  0
 39 40  1  0  0  0  0
 39 67  1  0  0  0  0
 41 70  1  0  0  0  0
 41 71  1  0  0  0  0
 41 72  1  0  0  0  0
M  END
> <PUBCHEM_COMPOUND_CID>
44427518

> <PUBCHEM_COMPOUND_CANONICALIZED>
1

> <PUBCHEM_CACTVS_COMPLEXITY>
891

> <PUBCHEM_CACTVS_HBOND_ACCEPTOR>
7

> <PUBCHEM_CACTVS_HBOND_DONOR>
4

> <PUBCHEM_CACTVS_ROTATABLE_BOND>
6

> <PUBCHEM_CACTVS_SUBSKEYS>
AAADceB/uAAAAAAAAAAAAAAAAAAAAAAAAAA8YMGCBYAAAAABVAAAHgAQAAAADAzhmAYyxoPABACIAiVSUACCCAAlIgAIiAEPfMgOZnrE9ZuXMahk1BHY6ceYyfCeyACBQAACECCQAQKAAAQgQAAAAAAAAA==

> <PUBCHEM_IUPAC_OPENEYE_NAME>
2-[9-(4-amino-3-methoxy-phenyl)-6-oxo-5,11-dihydrobenzo[b][1,4]benzodiazepin-3-yl]-N-(4-morpholinophenyl)acetamide

> <PUBCHEM_IUPAC_CAS_NAME>
2-[9-(4-amino-3-methoxyphenyl)-6-oxo-5,11-dihydrobenzo[b][1,4]benzodiazepin-3-yl]-N-[4-(4-morpholinyl)phenyl]acetamide

> <PUBCHEM_IUPAC_NAME_MARKUP>
2-[9-(4-amino-3-methoxyphenyl)-6-oxo-5,11-dihydrobenzo[b][1,4]benzodiazepin-3-yl]-<I>N</I>-(4-morpholin-4-ylphenyl)acetamide

> <PUBCHEM_IUPAC_NAME>
2-[9-(4-amino-3-methoxyphenyl)-6-oxo-5,11-dihydrobenzo[b][1,4]benzodiazepin-3-yl]-N-(4-morpholin-4-ylphenyl)acetamide

> <PUBCHEM_IUPAC_SYSTEMATIC_NAME>
2-[9-(4-azanyl-3-methoxy-phenyl)-6-oxidanylidene-5,11-dihydrobenzo[b][1,4]benzodiazepin-3-yl]-N-(4-morpholin-4-ylphenyl)ethanamide

> <PUBCHEM_IUPAC_TRADITIONAL_NAME>
2-[9-(4-amino-3-methoxy-phenyl)-6-keto-5,11-dihydrobenzo[b][1,4]benzodiazepin-3-yl]-N-(4-morpholinophenyl)acetamide

> <PUBCHEM_IUPAC_INCHI>
InChI=1S/C32H31N5O4/c1-40-30-19-22(4-10-26(30)33)21-3-9-25-28(18-21)35-27-11-2-20(16-29(27)36-32(25)39)17-31(38)34-23-5-7-24(8-6-23)37-12-14-41-15-13-37/h2-11,16,18-19,35H,12-15,17,33H2,1H3,(H,34,38)(H,36,39)

> <PUBCHEM_IUPAC_INCHIKEY>
OOCDOHDNMUQTAH-UHFFFAOYSA-N

> <PUBCHEM_XLOGP3_AA>
3.8

> <PUBCHEM_EXACT_MASS>
549.23760449

> <PUBCHEM_MOLECULAR_FORMULA>
C32H31N5O4

> <PUBCHEM_MOLECULAR_WEIGHT>
549.6

> <PUBCHEM_SMILES>
COC1=C(C=CC(=C1)C2=CC3=C(C=C2)C(=O)NC4=C(N3)C=CC(=C4)CC(=O)NC5=CC=C(C=C5)N6CCOCC6)N

> <PUBCHEM_OPENEYE_CAN_SMILES>
COC1=C(C=CC(=C1)C2=CC3=C(C=C2)C(=O)NC4=C(N3)C=CC(=C4)CC(=O)NC5=CC=C(C=C5)N6CCOCC6)N

> <PUBCHEM_OPENEYE_ISO_SMILES>
COC1=C(C=CC(=C1)C2=CC3=C(C=C2)C(=O)NC4=C(N3)C=CC(=C4)CC(=O)NC5=CC=C(C=C5)N6CCOCC6)N

> <PUBCHEM_CACTVS_TPSA>
118

> <PUBCHEM_MONOISOTOPIC_WEIGHT>
549.23760449

> <PUBCHEM_TOTAL_CHARGE>
0

> <PUBCHEM_HEAVY_ATOM_COUNT>
41

> <PUBCHEM_ATOM_DEF_STEREO_COUNT>
0

> <PUBCHEM_ATOM_UDEF_STEREO_COUNT>
0

> <PUBCHEM_BOND_DEF_STEREO_COUNT>
0

> <PUBCHEM_BOND_UDEF_STEREO_COUNT>
0

> <PUBCHEM_ISOTOPIC_ATOM_COUNT>
0

> <PUBCHEM_COMPONENT_COUNT>
1

> <PUBCHEM_CACTVS_TAUTO_COUNT>
-1

> <PUBCHEM_COORDINATE_TYPE>
1
5
255

> <PUBCHEM_BONDANNOTATIONS>
14  15  8
14  16  8
15  25  8
16  26  8
17  18  8
17  29  8
18  23  8
19  20  8
19  28  8
20  32  8
21  23  8
21  31  8
22  25  8
22  26  8
27  28  8
27  34  8
29  31  8
32  34  8
35  36  8
35  37  8
36  38  8
37  39  8
38  40  8
39  40  8

$$$$
