44586040
  -OEChem-03202506242D

 19 20  0     0  0  0  0  0  0999 V2000
    4.2690   -1.4400    0.0000 O   0  0  0  0  0  0  0  0  0  0  0  0
    5.2152    0.2553    0.0000 N   0  0  0  0  0  0  0  0  0  0  0  0
    5.7988    1.0600    0.0000 N   0  0  0  0  0  0  0  0  0  0  0  0
    2.5369   -1.4400    0.0000 N   0  0  0  0  0  0  0  0  0  0  0  0
    4.2690    0.5600    0.0000 C   0  0  0  0  0  0  0  0  0  0  0  0
    4.2690    1.5600    0.0000 C   0  0  0  0  0  0  0  0  0  0  0  0
    3.4030    0.0600    0.0000 C   0  0  0  0  0  0  0  0  0  0  0  0
    3.4030    2.0600    0.0000 C   0  0  0  0  0  0  0  0  0  0  0  0
    2.5369    0.5600    0.0000 C   0  0  0  0  0  0  0  0  0  0  0  0
    5.2152    1.8647    0.0000 C   0  0  0  0  0  0  0  0  0  0  0  0
    2.5369    1.5600    0.0000 C   0  0  0  0  0  0  0  0  0  0  0  0
    3.4030   -0.9400    0.0000 C   0  0  0  0  0  0  0  0  0  0  0  0
    3.4030    2.6800    0.0000 H   0  0  0  0  0  0  0  0  0  0  0  0
    2.0000    0.2500    0.0000 H   0  0  0  0  0  0  0  0  0  0  0  0
    5.4078   -0.3341    0.0000 H   0  0  0  0  0  0  0  0  0  0  0  0
    5.4078    2.4540    0.0000 H   0  0  0  0  0  0  0  0  0  0  0  0
    2.0000    1.8700    0.0000 H   0  0  0  0  0  0  0  0  0  0  0  0
    2.5369   -2.0600    0.0000 H   0  0  0  0  0  0  0  0  0  0  0  0
    2.0000   -1.1300    0.0000 H   0  0  0  0  0  0  0  0  0  0  0  0
  1 12  2  0  0  0  0
  2  3  1  0  0  0  0
  2  5  1  0  0  0  0
  2 15  1  0  0  0  0
  3 10  2  0  0  0  0
  4 12  1  0  0  0  0
  4 18  1  0  0  0  0
  4 19  1  0  0  0  0
  5  6  2  0  0  0  0
  5  7  1  0  0  0  0
  6  8  1  0  0  0  0
  6 10  1  0  0  0  0
  7  9  2  0  0  0  0
  7 12  1  0  0  0  0
  8 11  2  0  0  0  0
  8 13  1  0  0  0  0
  9 11  1  0  0  0  0
  9 14  1  0  0  0  0
 10 16  1  0  0  0  0
 11 17  1  0  0  0  0
M  END
> <PUBCHEM_COMPOUND_CID>
44586040

> <PUBCHEM_COMPOUND_CANONICALIZED>
1

> <PUBCHEM_CACTVS_COMPLEXITY>
195

> <PUBCHEM_CACTVS_HBOND_ACCEPTOR>
2

> <PUBCHEM_CACTVS_HBOND_DONOR>
2

> <PUBCHEM_CACTVS_ROTATABLE_BOND>
1

> <PUBCHEM_CACTVS_SUBSKEYS>
AAADcYBzIAAAAAAAAAAAAAAAAAAAAWAAAAAwAAAAAAAAAFgB8AAAHgAYAAAADAjBngQ8wPBjAACqAzV3UACSBAAkgAAYuSEgRNgIILqA1dGApYBgiAAIyccYiUCOAAACAAACAAAAAAQAAAQAAAAAAAAAAA==

> <PUBCHEM_IUPAC_OPENEYE_NAME>
1H-indazole-7-carboxamide

> <PUBCHEM_IUPAC_CAS_NAME>
1H-indazole-7-carboxamide

> <PUBCHEM_IUPAC_NAME_MARKUP>
1<I>H</I>-indazole-7-carboxamide

> <PUBCHEM_IUPAC_NAME>
1H-indazole-7-carboxamide

> <PUBCHEM_IUPAC_SYSTEMATIC_NAME>
1H-indazole-7-carboxamide

> <PUBCHEM_IUPAC_TRADITIONAL_NAME>
1H-indazole-7-carboxamide

> <PUBCHEM_IUPAC_INCHI>
InChI=1S/C8H7N3O/c9-8(12)6-3-1-2-5-4-10-11-7(5)6/h1-4H,(H2,9,12)(H,10,11)

> <PUBCHEM_IUPAC_INCHIKEY>
ZWZKHJQCLZIUIT-UHFFFAOYSA-N

> <PUBCHEM_XLOGP3_AA>
0.4

> <PUBCHEM_EXACT_MASS>
161.058911855

> <PUBCHEM_MOLECULAR_FORMULA>
C8H7N3O

> <PUBCHEM_MOLECULAR_WEIGHT>
161.16

> <PUBCHEM_SMILES>
C1=CC2=C(C(=C1)C(=O)N)NN=C2

> <PUBCHEM_OPENEYE_CAN_SMILES>
C1=CC2=C(C(=C1)C(=O)N)NN=C2

> <PUBCHEM_OPENEYE_ISO_SMILES>
C1=CC2=C(C(=C1)C(=O)N)NN=C2

> <PUBCHEM_CACTVS_TPSA>
71.8

> <PUBCHEM_MONOISOTOPIC_WEIGHT>
161.058911855

> <PUBCHEM_TOTAL_CHARGE>
0

> <PUBCHEM_HEAVY_ATOM_COUNT>
12

> <PUBCHEM_ATOM_DEF_STEREO_COUNT>
0

> <PUBCHEM_ATOM_UDEF_STEREO_COUNT>
0

> <PUBCHEM_BOND_DEF_STEREO_COUNT>
0

> <PUBCHEM_BOND_UDEF_STEREO_COUNT>
0

> <PUBCHEM_ISOTOPIC_ATOM_COUNT>
0

> <PUBCHEM_COMPONENT_COUNT>
1

> <PUBCHEM_CACTVS_TAUTO_COUNT>
-1

> <PUBCHEM_COORDINATE_TYPE>
1
5
255

> <PUBCHEM_BONDANNOTATIONS>
2  3  8
2  5  8
3  10  8
5  6  8
5  7  8
6  10  8
6  8  8
7  9  8
8  11  8
9  11  8

$$$$
