4323109
  -OEChem-03202502422D

 42 45  0     0  0  0  0  0  0999 V2000
   10.7757   -0.5933    0.0000 O   0  0  0  0  0  0  0  0  0  0  0  0
    9.9667    1.9945    0.0000 O   0  0  0  0  0  0  0  0  0  0  0  0
    3.7282    0.4725    0.0000 O   0  0  0  0  0  0  0  0  0  0  0  0
    8.1301   -1.0000    0.0000 N   0  0  0  0  0  0  0  0  0  0  0  0
    8.1301    1.0000    0.0000 N   0  0  0  0  0  0  0  0  0  0  0  0
    4.6000   -1.0241    0.0000 N   0  0  0  0  0  0  0  0  0  0  0  0
    2.8680   -1.0308    0.0000 N   0  0  0  0  0  0  0  0  0  0  0  0
    7.2641   -0.5000    0.0000 C   0  0  0  0  0  0  0  0  0  0  0  0
    7.2641    0.5000    0.0000 C   0  0  0  0  0  0  0  0  0  0  0  0
    8.9961   -0.5000    0.0000 C   0  0  0  0  0  0  0  0  0  0  0  0
    8.9961    0.5000    0.0000 C   0  0  0  0  0  0  0  0  0  0  0  0
    5.4641   -0.5208    0.0000 C   0  0  0  0  0  0  0  0  0  0  0  0
    6.3701   -1.0347    0.0000 C   0  0  0  0  0  0  0  0  0  0  0  0
    6.3701    1.0347    0.0000 C   0  0  0  0  0  0  0  0  0  0  0  0
    5.4641    0.5208    0.0000 C   0  0  0  0  0  0  0  0  0  0  0  0
    9.8622   -1.0000    0.0000 C   0  0  0  0  0  0  0  0  0  0  0  0
    9.8622    1.0000    0.0000 C   0  0  0  0  0  0  0  0  0  0  0  0
    9.9667   -1.9945    0.0000 C   0  0  0  0  0  0  0  0  0  0  0  0
   10.7757    0.5933    0.0000 C   0  0  0  0  0  0  0  0  0  0  0  0
    3.7320   -0.5275    0.0000 C   0  0  0  0  0  0  0  0  0  0  0  0
   10.9448   -2.2024    0.0000 C   0  0  0  0  0  0  0  0  0  0  0  0
   11.4448    1.3364    0.0000 C   0  0  0  0  0  0  0  0  0  0  0  0
   11.4448   -1.3364    0.0000 C   0  0  0  0  0  0  0  0  0  0  0  0
   10.9448    2.2024    0.0000 C   0  0  0  0  0  0  0  0  0  0  0  0
    2.0000   -0.5342    0.0000 C   0  0  0  0  0  0  0  0  0  0  0  0
    2.8718   -2.0308    0.0000 C   0  0  0  0  0  0  0  0  0  0  0  0
    6.3773   -1.6546    0.0000 H   0  0  0  0  0  0  0  0  0  0  0  0
    6.3773    1.6546    0.0000 H   0  0  0  0  0  0  0  0  0  0  0  0
    4.9283    0.8329    0.0000 H   0  0  0  0  0  0  0  0  0  0  0  0
    4.6024   -1.6442    0.0000 H   0  0  0  0  0  0  0  0  0  0  0  0
    9.5059   -2.4094    0.0000 H   0  0  0  0  0  0  0  0  0  0  0  0
   10.9046   -0.0132    0.0000 H   0  0  0  0  0  0  0  0  0  0  0  0
   11.1970   -2.7688    0.0000 H   0  0  0  0  0  0  0  0  0  0  0  0
   12.0614    1.2716    0.0000 H   0  0  0  0  0  0  0  0  0  0  0  0
   12.0614   -1.2716    0.0000 H   0  0  0  0  0  0  0  0  0  0  0  0
   11.1970    2.7688    0.0000 H   0  0  0  0  0  0  0  0  0  0  0  0
    2.3079    0.0040    0.0000 H   0  0  0  0  0  0  0  0  0  0  0  0
    1.4619   -0.2262    0.0000 H   0  0  0  0  0  0  0  0  0  0  0  0
    1.6921   -1.0723    0.0000 H   0  0  0  0  0  0  0  0  0  0  0  0
    2.2518   -2.0332    0.0000 H   0  0  0  0  0  0  0  0  0  0  0  0
    2.8742   -2.6508    0.0000 H   0  0  0  0  0  0  0  0  0  0  0  0
    3.4918   -2.0284    0.0000 H   0  0  0  0  0  0  0  0  0  0  0  0
  1 16  1  0  0  0  0
  1 23  1  0  0  0  0
  2 17  1  0  0  0  0
  2 24  1  0  0  0  0
  3 20  2  0  0  0  0
  4  8  1  0  0  0  0
  4 10  2  0  0  0  0
  5  9  1  0  0  0  0
  5 11  2  0  0  0  0
  6 12  1  0  0  0  0
  6 20  1  0  0  0  0
  6 30  1  0  0  0  0
  7 20  1  0  0  0  0
  7 25  1  0  0  0  0
  7 26  1  0  0  0  0
  8  9  2  0  0  0  0
  8 13  1  0  0  0  0
  9 14  1  0  0  0  0
 10 11  1  0  0  0  0
 10 16  1  0  0  0  0
 11 17  1  0  0  0  0
 12 13  2  0  0  0  0
 12 15  1  0  0  0  0
 13 27  1  0  0  0  0
 14 15  2  0  0  0  0
 14 28  1  0  0  0  0
 15 29  1  0  0  0  0
 16 18  2  0  0  0  0
 17 19  2  0  0  0  0
 18 21  1  0  0  0  0
 18 31  1  0  0  0  0
 19 22  1  0  0  0  0
 19 32  1  0  0  0  0
 21 23  2  0  0  0  0
 21 33  1  0  0  0  0
 22 24  2  0  0  0  0
 22 34  1  0  0  0  0
 23 35  1  0  0  0  0
 24 36  1  0  0  0  0
 25 37  1  0  0  0  0
 25 38  1  0  0  0  0
 25 39  1  0  0  0  0
 26 40  1  0  0  0  0
 26 41  1  0  0  0  0
 26 42  1  0  0  0  0
M  END
> <PUBCHEM_COMPOUND_CID>
4323109

> <PUBCHEM_COMPOUND_CANONICALIZED>
1

> <PUBCHEM_CACTVS_COMPLEXITY>
503

> <PUBCHEM_CACTVS_HBOND_ACCEPTOR>
5

> <PUBCHEM_CACTVS_HBOND_DONOR>
1

> <PUBCHEM_CACTVS_ROTATABLE_BOND>
3

> <PUBCHEM_CACTVS_SUBSKEYS>
AAADceB7sAAAAAAAAAAAAAAAAAAAASJAAAA8QAAAAAAAAACx/gAAHgAQAAAACAyhlgYzxLPIFECoAaxy1ASCiCQnMiAImCG+fNiOZvrE9fuXPaju1hPY6efb2aOQAACAAAQAACAAAQAACAAAQAAAAAAAAA==

> <PUBCHEM_IUPAC_OPENEYE_NAME>
3-[2,3-bis(2-furyl)quinoxalin-6-yl]-1,1-dimethyl-urea

> <PUBCHEM_IUPAC_CAS_NAME>
3-[2,3-bis(2-furanyl)-6-quinoxalinyl]-1,1-dimethylurea

> <PUBCHEM_IUPAC_NAME_MARKUP>
3-[2,3-bis(furan-2-yl)quinoxalin-6-yl]-1,1-dimethylurea

> <PUBCHEM_IUPAC_NAME>
3-[2,3-bis(furan-2-yl)quinoxalin-6-yl]-1,1-dimethylurea

> <PUBCHEM_IUPAC_SYSTEMATIC_NAME>
3-[2,3-bis(furan-2-yl)quinoxalin-6-yl]-1,1-dimethyl-urea

> <PUBCHEM_IUPAC_TRADITIONAL_NAME>
3-[2,3-bis(2-furyl)quinoxalin-6-yl]-1,1-dimethyl-urea

> <PUBCHEM_IUPAC_INCHI>
InChI=1S/C19H16N4O3/c1-23(2)19(24)20-12-7-8-13-14(11-12)22-18(16-6-4-10-26-16)17(21-13)15-5-3-9-25-15/h3-11H,1-2H3,(H,20,24)

> <PUBCHEM_IUPAC_INCHIKEY>
GFOMFROIIBQABZ-UHFFFAOYSA-N

> <PUBCHEM_XLOGP3_AA>
1.9

> <PUBCHEM_EXACT_MASS>
348.12224039

> <PUBCHEM_MOLECULAR_FORMULA>
C19H16N4O3

> <PUBCHEM_MOLECULAR_WEIGHT>
348.4

> <PUBCHEM_SMILES>
CN(C)C(=O)NC1=CC2=C(C=C1)N=C(C(=N2)C3=CC=CO3)C4=CC=CO4

> <PUBCHEM_OPENEYE_CAN_SMILES>
CN(C)C(=O)NC1=CC2=C(C=C1)N=C(C(=N2)C3=CC=CO3)C4=CC=CO4

> <PUBCHEM_OPENEYE_ISO_SMILES>
CN(C)C(=O)NC1=CC2=C(C=C1)N=C(C(=N2)C3=CC=CO3)C4=CC=CO4

> <PUBCHEM_CACTVS_TPSA>
84.4

> <PUBCHEM_MONOISOTOPIC_WEIGHT>
348.12224039

> <PUBCHEM_TOTAL_CHARGE>
0

> <PUBCHEM_HEAVY_ATOM_COUNT>
26

> <PUBCHEM_ATOM_DEF_STEREO_COUNT>
0

> <PUBCHEM_ATOM_UDEF_STEREO_COUNT>
0

> <PUBCHEM_BOND_DEF_STEREO_COUNT>
0

> <PUBCHEM_BOND_UDEF_STEREO_COUNT>
0

> <PUBCHEM_ISOTOPIC_ATOM_COUNT>
0

> <PUBCHEM_COMPONENT_COUNT>
1

> <PUBCHEM_CACTVS_TAUTO_COUNT>
-1

> <PUBCHEM_COORDINATE_TYPE>
1
5
255

> <PUBCHEM_BONDANNOTATIONS>
1  16  8
1  23  8
10  11  8
12  13  8
12  15  8
14  15  8
16  18  8
17  19  8
18  21  8
19  22  8
2  17  8
2  24  8
21  23  8
22  24  8
4  10  8
4  8  8
5  11  8
5  9  8
8  13  8
8  9  8
9  14  8

$$$$
