9946124
  -OEChem-03202503212D

 32 35  0     0  0  0  0  0  0999 V2000
    2.0000    2.5000    0.0000 Cl  0  0  0  0  0  0  0  0  0  0  0  0
    7.2764   -2.3047    0.0000 S   0  0  0  0  0  0  0  0  0  0  0  0
    5.4641    0.5000    0.0000 O   0  0  0  0  0  0  0  0  0  0  0  0
    9.4477   -0.6910    0.0000 O   0  0  0  0  0  0  0  0  0  0  0  0
    4.5981   -2.0000    0.0000 N   0  0  0  0  0  0  0  0  0  0  0  0
    9.4477   -2.3090    0.0000 N   0  0  0  0  0  0  0  0  0  0  0  0
   10.3988   -2.0000    0.0000 N   0  0  0  0  0  0  0  0  0  0  0  0
   11.2078   -0.4122    0.0000 N   0  0  0  0  0  0  0  0  0  0  0  0
    6.3301   -1.0000    0.0000 C   0  0  0  0  0  0  0  0  0  0  0  0
    6.3301   -2.0000    0.0000 C   0  0  0  0  0  0  0  0  0  0  0  0
    7.2764   -0.6953    0.0000 C   0  0  0  0  0  0  0  0  0  0  0  0
    5.4641   -0.5000    0.0000 C   0  0  0  0  0  0  0  0  0  0  0  0
    7.8600   -1.5000    0.0000 C   0  0  0  0  0  0  0  0  0  0  0  0
    5.4641   -2.5000    0.0000 C   0  0  0  0  0  0  0  0  0  0  0  0
    4.5981   -1.0000    0.0000 C   0  0  0  0  0  0  0  0  0  0  0  0
    8.8600   -1.5000    0.0000 C   0  0  0  0  0  0  0  0  0  0  0  0
    4.5981    1.0000    0.0000 C   0  0  0  0  0  0  0  0  0  0  0  0
    4.5981    2.0000    0.0000 C   0  0  0  0  0  0  0  0  0  0  0  0
    3.7320    0.5000    0.0000 C   0  0  0  0  0  0  0  0  0  0  0  0
    3.7320    2.5000    0.0000 C   0  0  0  0  0  0  0  0  0  0  0  0
    2.8660    1.0000    0.0000 C   0  0  0  0  0  0  0  0  0  0  0  0
   10.3988   -1.0000    0.0000 C   0  0  0  0  0  0  0  0  0  0  0  0
    2.8660    2.0000    0.0000 C   0  0  0  0  0  0  0  0  0  0  0  0
    7.4690   -0.1059    0.0000 H   0  0  0  0  0  0  0  0  0  0  0  0
    5.4641   -3.1200    0.0000 H   0  0  0  0  0  0  0  0  0  0  0  0
    4.0611   -0.6900    0.0000 H   0  0  0  0  0  0  0  0  0  0  0  0
    5.1350    2.3100    0.0000 H   0  0  0  0  0  0  0  0  0  0  0  0
    3.7320   -0.1200    0.0000 H   0  0  0  0  0  0  0  0  0  0  0  0
    3.7320    3.1200    0.0000 H   0  0  0  0  0  0  0  0  0  0  0  0
    2.3291    0.6900    0.0000 H   0  0  0  0  0  0  0  0  0  0  0  0
   11.7742   -0.6644    0.0000 H   0  0  0  0  0  0  0  0  0  0  0  0
   11.1430    0.2044    0.0000 H   0  0  0  0  0  0  0  0  0  0  0  0
  1 23  1  0  0  0  0
  2 10  1  0  0  0  0
  2 13  1  0  0  0  0
  3 12  1  0  0  0  0
  3 17  1  0  0  0  0
  4 16  1  0  0  0  0
  4 22  1  0  0  0  0
  5 14  2  0  0  0  0
  5 15  1  0  0  0  0
  6  7  1  0  0  0  0
  6 16  2  0  0  0  0
  7 22  2  0  0  0  0
  8 22  1  0  0  0  0
  8 31  1  0  0  0  0
  8 32  1  0  0  0  0
  9 10  2  0  0  0  0
  9 11  1  0  0  0  0
  9 12  1  0  0  0  0
 10 14  1  0  0  0  0
 11 13  2  0  0  0  0
 11 24  1  0  0  0  0
 12 15  2  0  0  0  0
 13 16  1  0  0  0  0
 14 25  1  0  0  0  0
 15 26  1  0  0  0  0
 17 18  2  0  0  0  0
 17 19  1  0  0  0  0
 18 20  1  0  0  0  0
 18 27  1  0  0  0  0
 19 21  2  0  0  0  0
 19 28  1  0  0  0  0
 20 23  2  0  0  0  0
 20 29  1  0  0  0  0
 21 23  1  0  0  0  0
 21 30  1  0  0  0  0
M  END
> <PUBCHEM_COMPOUND_CID>
9946124

> <PUBCHEM_COMPOUND_CANONICALIZED>
1

> <PUBCHEM_CACTVS_COMPLEXITY>
413

> <PUBCHEM_CACTVS_HBOND_ACCEPTOR>
7

> <PUBCHEM_CACTVS_HBOND_DONOR>
1

> <PUBCHEM_CACTVS_ROTATABLE_BOND>
3

> <PUBCHEM_CACTVS_SUBSKEYS>
AAADccBzsABEAAAAAAAAAAAAAAAAAWJAAAA8QAAAAAAAAFgB/gAAHgYYAAAADAbB2iQ9l9JIFEiuAjF3dASTqKI9bTBe2D0vTtkOJvLlt5uPOSj0yBH46Ye4fAxOACAAAAAAAAAAQAAAAAAAAAAAAAAAAA==

> <PUBCHEM_IUPAC_OPENEYE_NAME>
5-[4-(4-chlorophenoxy)thieno[2,3-c]pyridin-2-yl]-1,3,4-oxadiazol-2-amine

> <PUBCHEM_IUPAC_CAS_NAME>
5-[4-(4-chlorophenoxy)-2-thieno[2,3-c]pyridinyl]-1,3,4-oxadiazol-2-amine

> <PUBCHEM_IUPAC_NAME_MARKUP>
5-[4-(4-chlorophenoxy)thieno[2,3-c]pyridin-2-yl]-1,3,4-oxadiazol-2-amine

> <PUBCHEM_IUPAC_NAME>
5-[4-(4-chlorophenoxy)thieno[2,3-c]pyridin-2-yl]-1,3,4-oxadiazol-2-amine

> <PUBCHEM_IUPAC_SYSTEMATIC_NAME>
5-[4-(4-chloranylphenoxy)thieno[2,3-c]pyridin-2-yl]-1,3,4-oxadiazol-2-amine

> <PUBCHEM_IUPAC_TRADITIONAL_NAME>
[5-[4-(4-chlorophenoxy)thieno[2,3-c]pyridin-2-yl]-1,3,4-oxadiazol-2-yl]amine

> <PUBCHEM_IUPAC_INCHI>
InChI=1S/C15H9ClN4O2S/c16-8-1-3-9(4-2-8)21-11-6-18-7-13-10(11)5-12(23-13)14-19-20-15(17)22-14/h1-7H,(H2,17,20)

> <PUBCHEM_IUPAC_INCHIKEY>
LXVBELDBJGYFEM-UHFFFAOYSA-N

> <PUBCHEM_XLOGP3_AA>
3.2

> <PUBCHEM_EXACT_MASS>
344.0134744

> <PUBCHEM_MOLECULAR_FORMULA>
C15H9ClN4O2S

> <PUBCHEM_MOLECULAR_WEIGHT>
344.8

> <PUBCHEM_SMILES>
C1=CC(=CC=C1OC2=CN=CC3=C2C=C(S3)C4=NN=C(O4)N)Cl

> <PUBCHEM_OPENEYE_CAN_SMILES>
C1=CC(=CC=C1OC2=CN=CC3=C2C=C(S3)C4=NN=C(O4)N)Cl

> <PUBCHEM_OPENEYE_ISO_SMILES>
C1=CC(=CC=C1OC2=CN=CC3=C2C=C(S3)C4=NN=C(O4)N)Cl

> <PUBCHEM_CACTVS_TPSA>
115

> <PUBCHEM_MONOISOTOPIC_WEIGHT>
344.0134744

> <PUBCHEM_TOTAL_CHARGE>
0

> <PUBCHEM_HEAVY_ATOM_COUNT>
23

> <PUBCHEM_ATOM_DEF_STEREO_COUNT>
0

> <PUBCHEM_ATOM_UDEF_STEREO_COUNT>
0

> <PUBCHEM_BOND_DEF_STEREO_COUNT>
0

> <PUBCHEM_BOND_UDEF_STEREO_COUNT>
0

> <PUBCHEM_ISOTOPIC_ATOM_COUNT>
0

> <PUBCHEM_COMPONENT_COUNT>
1

> <PUBCHEM_CACTVS_TAUTO_COUNT>
-1

> <PUBCHEM_COORDINATE_TYPE>
1
5
255

> <PUBCHEM_BONDANNOTATIONS>
10  14  8
11  13  8
12  15  8
17  18  8
17  19  8
18  20  8
19  21  8
2  10  8
2  13  8
20  23  8
21  23  8
4  16  8
4  22  8
5  14  8
5  15  8
6  16  8
6  7  8
7  22  8
9  10  8
9  11  8
9  12  8

$$$$
