49830304
  -OEChem-03202504182D

 50 53  0     0  0  0  0  0  0999 V2000
    7.2566   -1.4026    0.0000 Cl  0  0  0  0  0  0  0  0  0  0  0  0
    3.5602    4.0138    0.0000 O   0  0  0  0  0  0  0  0  0  0  0  0
    3.9639   -0.3264    0.0000 N   0  0  0  0  0  0  0  0  0  0  0  0
    5.2066    3.4757    0.0000 N   0  0  0  0  0  0  0  0  0  0  0  0
    4.3211   -2.0212    0.0000 N   0  0  0  0  0  0  0  0  0  0  0  0
    4.8494    5.1705    0.0000 N   0  0  0  0  0  0  0  0  0  0  0  0
    5.6103   -0.8645    0.0000 N   0  0  0  0  0  0  0  0  0  0  0  0
    4.6783   -5.3255    0.0000 N   0  0  0  0  0  0  0  0  0  0  0  0
    2.8660   -5.5208    0.0000 N   0  0  0  0  0  0  0  0  0  0  0  0
    4.2746    0.6241    0.0000 C   0  0  0  0  0  0  0  0  0  0  0  0
    4.8959    2.5252    0.0000 C   0  0  0  0  0  0  0  0  0  0  0  0
    5.2531    0.8304    0.0000 C   0  0  0  0  0  0  0  0  0  0  0  0
    3.6067    1.3684    0.0000 C   0  0  0  0  0  0  0  0  0  0  0  0
    5.5637    1.7809    0.0000 C   0  0  0  0  0  0  0  0  0  0  0  0
    3.9174    2.3190    0.0000 C   0  0  0  0  0  0  0  0  0  0  0  0
    4.6318   -1.0707    0.0000 C   0  0  0  0  0  0  0  0  0  0  0  0
    4.5387    4.2200    0.0000 C   0  0  0  0  0  0  0  0  0  0  0  0
    4.9889   -2.7655    0.0000 C   0  0  0  0  0  0  0  0  0  0  0  0
    4.6783   -3.7160    0.0000 C   0  0  0  0  0  0  0  0  0  0  0  0
    6.2781   -1.6088    0.0000 C   0  0  0  0  0  0  0  0  0  0  0  0
    5.9674   -2.5593    0.0000 C   0  0  0  0  0  0  0  0  0  0  0  0
    3.7320   -4.0208    0.0000 C   0  0  0  0  0  0  0  0  0  0  0  0
    4.1815    5.9148    0.0000 C   0  0  0  0  0  0  0  0  0  0  0  0
    5.2619   -4.5208    0.0000 C   0  0  0  0  0  0  0  0  0  0  0  0
    3.7320   -5.0208    0.0000 C   0  0  0  0  0  0  0  0  0  0  0  0
    2.8660   -3.5208    0.0000 C   0  0  0  0  0  0  0  0  0  0  0  0
    2.0000   -4.0208    0.0000 C   0  0  0  0  0  0  0  0  0  0  0  0
    2.0000   -5.0208    0.0000 C   0  0  0  0  0  0  0  0  0  0  0  0
    4.6886    0.1627    0.0000 H   0  0  0  0  0  0  0  0  0  0  0  0
    5.5026    2.6530    0.0000 H   0  0  0  0  0  0  0  0  0  0  0  0
    5.2736    0.2107    0.0000 H   0  0  0  0  0  0  0  0  0  0  0  0
    5.8669    0.7430    0.0000 H   0  0  0  0  0  0  0  0  0  0  0  0
    3.0598    1.6604    0.0000 H   0  0  0  0  0  0  0  0  0  0  0  0
    3.2242    0.8805    0.0000 H   0  0  0  0  0  0  0  0  0  0  0  0
    6.1107    1.4888    0.0000 H   0  0  0  0  0  0  0  0  0  0  0  0
    5.9463    2.2688    0.0000 H   0  0  0  0  0  0  0  0  0  0  0  0
    3.8968    2.9386    0.0000 H   0  0  0  0  0  0  0  0  0  0  0  0
    3.3036    2.4063    0.0000 H   0  0  0  0  0  0  0  0  0  0  0  0
    3.3572   -0.4542    0.0000 H   0  0  0  0  0  0  0  0  0  0  0  0
    5.8132    3.6036    0.0000 H   0  0  0  0  0  0  0  0  0  0  0  0
    5.4560    5.2984    0.0000 H   0  0  0  0  0  0  0  0  0  0  0  0
    6.3815   -3.0208    0.0000 H   0  0  0  0  0  0  0  0  0  0  0  0
    4.6430    6.3289    0.0000 H   0  0  0  0  0  0  0  0  0  0  0  0
    3.7675    6.3763    0.0000 H   0  0  0  0  0  0  0  0  0  0  0  0
    3.7201    5.5008    0.0000 H   0  0  0  0  0  0  0  0  0  0  0  0
    5.8819   -4.5208    0.0000 H   0  0  0  0  0  0  0  0  0  0  0  0
    4.8709   -5.9148    0.0000 H   0  0  0  0  0  0  0  0  0  0  0  0
    2.8660   -2.9008    0.0000 H   0  0  0  0  0  0  0  0  0  0  0  0
    1.4631   -3.7108    0.0000 H   0  0  0  0  0  0  0  0  0  0  0  0
    1.4631   -5.3308    0.0000 H   0  0  0  0  0  0  0  0  0  0  0  0
  1 20  1  0  0  0  0
  2 17  2  0  0  0  0
  3 10  1  0  0  0  0
  3 16  1  0  0  0  0
  3 39  1  0  0  0  0
  4 11  1  0  0  0  0
  4 17  1  0  0  0  0
  4 40  1  0  0  0  0
  5 16  2  0  0  0  0
  5 18  1  0  0  0  0
  6 17  1  0  0  0  0
  6 23  1  0  0  0  0
  6 41  1  0  0  0  0
  7 16  1  0  0  0  0
  7 20  2  0  0  0  0
  8 24  1  0  0  0  0
  8 25  1  0  0  0  0
  8 47  1  0  0  0  0
  9 25  1  0  0  0  0
  9 28  2  0  0  0  0
 10 12  1  0  0  0  0
 10 13  1  0  0  0  0
 10 29  1  0  0  0  0
 11 14  1  0  0  0  0
 11 15  1  0  0  0  0
 11 30  1  0  0  0  0
 12 14  1  0  0  0  0
 12 31  1  0  0  0  0
 12 32  1  0  0  0  0
 13 15  1  0  0  0  0
 13 33  1  0  0  0  0
 13 34  1  0  0  0  0
 14 35  1  0  0  0  0
 14 36  1  0  0  0  0
 15 37  1  0  0  0  0
 15 38  1  0  0  0  0
 18 19  1  0  0  0  0
 18 21  2  0  0  0  0
 19 22  1  0  0  0  0
 19 24  2  0  0  0  0
 20 21  1  0  0  0  0
 21 42  1  0  0  0  0
 22 25  2  0  0  0  0
 22 26  1  0  0  0  0
 23 43  1  0  0  0  0
 23 44  1  0  0  0  0
 23 45  1  0  0  0  0
 24 46  1  0  0  0  0
 26 27  2  0  0  0  0
 26 48  1  0  0  0  0
 27 28  1  0  0  0  0
 27 49  1  0  0  0  0
 28 50  1  0  0  0  0
M  END
> <PUBCHEM_COMPOUND_CID>
49830304

> <PUBCHEM_COMPOUND_CANONICALIZED>
1

> <PUBCHEM_CACTVS_COMPLEXITY>
530

> <PUBCHEM_CACTVS_HBOND_ACCEPTOR>
5

> <PUBCHEM_CACTVS_HBOND_DONOR>
4

> <PUBCHEM_CACTVS_ROTATABLE_BOND>
4

> <PUBCHEM_CACTVS_SUBSKEYS>
AAADceB7oAAEAAAAAAAAAAAAAAAAAWAAAAA8WIAAAAAAAFgB/gAAHgIQAAAADCrBHyQ/sN7JkACoAzZndACCgCmxB6AJ2aA4ZpiIKOLB29GEJAholgLIyCcQgIAOgAAAAAAAAAAAAQAAAAAAAAAAAAAAAA==

> <PUBCHEM_IUPAC_OPENEYE_NAME>
1-[4-[[4-chloro-6-(1H-pyrrolo[2,3-b]pyridin-3-yl)pyrimidin-2-yl]amino]cyclohexyl]-3-methyl-urea

> <PUBCHEM_IUPAC_CAS_NAME>
1-[4-[[4-chloro-6-(1H-pyrrolo[2,3-b]pyridin-3-yl)-2-pyrimidinyl]amino]cyclohexyl]-3-methylurea

> <PUBCHEM_IUPAC_NAME_MARKUP>
1-[4-[[4-chloro-6-(1<I>H</I>-pyrrolo[2,3-b]pyridin-3-yl)pyrimidin-2-yl]amino]cyclohexyl]-3-methylurea

> <PUBCHEM_IUPAC_NAME>
1-[4-[[4-chloro-6-(1H-pyrrolo[2,3-b]pyridin-3-yl)pyrimidin-2-yl]amino]cyclohexyl]-3-methylurea

> <PUBCHEM_IUPAC_SYSTEMATIC_NAME>
1-[4-[[4-chloranyl-6-(1H-pyrrolo[2,3-b]pyridin-3-yl)pyrimidin-2-yl]amino]cyclohexyl]-3-methyl-urea

> <PUBCHEM_IUPAC_TRADITIONAL_NAME>
1-[4-[[4-chloro-6-(1H-pyrrolo[2,3-b]pyridin-3-yl)pyrimidin-2-yl]amino]cyclohexyl]-3-methyl-urea

> <PUBCHEM_IUPAC_INCHI>
InChI=1S/C19H22ClN7O/c1-21-19(28)25-12-6-4-11(5-7-12)24-18-26-15(9-16(20)27-18)14-10-23-17-13(14)3-2-8-22-17/h2-3,8-12H,4-7H2,1H3,(H,22,23)(H2,21,25,28)(H,24,26,27)

> <PUBCHEM_IUPAC_INCHIKEY>
ZGGIYFOLDBTZIL-UHFFFAOYSA-N

> <PUBCHEM_XLOGP3_AA>
3

> <PUBCHEM_EXACT_MASS>
399.1574360

> <PUBCHEM_MOLECULAR_FORMULA>
C19H22ClN7O

> <PUBCHEM_MOLECULAR_WEIGHT>
399.9

> <PUBCHEM_SMILES>
CNC(=O)NC1CCC(CC1)NC2=NC(=CC(=N2)Cl)C3=CNC4=C3C=CC=N4

> <PUBCHEM_OPENEYE_CAN_SMILES>
CNC(=O)NC1CCC(CC1)NC2=NC(=CC(=N2)Cl)C3=CNC4=C3C=CC=N4

> <PUBCHEM_OPENEYE_ISO_SMILES>
CNC(=O)NC1CCC(CC1)NC2=NC(=CC(=N2)Cl)C3=CNC4=C3C=CC=N4

> <PUBCHEM_CACTVS_TPSA>
108

> <PUBCHEM_MONOISOTOPIC_WEIGHT>
399.1574360

> <PUBCHEM_TOTAL_CHARGE>
0

> <PUBCHEM_HEAVY_ATOM_COUNT>
28

> <PUBCHEM_ATOM_DEF_STEREO_COUNT>
0

> <PUBCHEM_ATOM_UDEF_STEREO_COUNT>
0

> <PUBCHEM_BOND_DEF_STEREO_COUNT>
0

> <PUBCHEM_BOND_UDEF_STEREO_COUNT>
0

> <PUBCHEM_ISOTOPIC_ATOM_COUNT>
0

> <PUBCHEM_COMPONENT_COUNT>
1

> <PUBCHEM_CACTVS_TAUTO_COUNT>
-1

> <PUBCHEM_COORDINATE_TYPE>
1
5
255

> <PUBCHEM_BONDANNOTATIONS>
18  21  8
19  22  8
19  24  8
20  21  8
22  25  8
22  26  8
26  27  8
27  28  8
5  16  8
5  18  8
7  16  8
7  20  8
8  24  8
8  25  8
9  25  8
9  28  8

$$$$
