135444250
  -OEChem-03202503492D

 37 39  0     0  0  0  0  0  0999 V2000
    6.0486    0.7115    0.0000 S   0  0  0  0  0  0  0  0  0  0  0  0
    4.2690   -3.3817    0.0000 O   0  0  0  0  0  0  0  0  0  0  0  0
    2.5369   -2.3817    0.0000 O   0  0  0  0  0  0  0  0  0  0  0  0
    4.4964    2.7819    0.0000 O   0  0  0  0  0  0  0  0  0  0  0  0
    6.2177    2.3207    0.0000 N   0  0  0  0  0  0  0  0  0  0  0  0
    7.7122    1.3502    0.0000 N   0  0  0  0  0  0  0  0  0  0  0  0
    4.2690   -0.3817    0.0000 C   0  0  0  0  0  0  0  0  0  0  0  0
    5.1350    1.1183    0.0000 C   0  0  0  0  0  0  0  0  0  0  0  0
    4.2690    0.6183    0.0000 C   0  0  0  0  0  0  0  0  0  0  0  0
    3.4030   -0.8817    0.0000 C   0  0  0  0  0  0  0  0  0  0  0  0
    5.1350   -0.8817    0.0000 C   0  0  0  0  0  0  0  0  0  0  0  0
    3.4030   -1.8817    0.0000 C   0  0  0  0  0  0  0  0  0  0  0  0
    5.2395    2.1128    0.0000 C   0  0  0  0  0  0  0  0  0  0  0  0
    4.2690   -2.3817    0.0000 C   0  0  0  0  0  0  0  0  0  0  0  0
    6.7177    1.4547    0.0000 C   0  0  0  0  0  0  0  0  0  0  0  0
    5.1350   -1.8817    0.0000 C   0  0  0  0  0  0  0  0  0  0  0  0
    8.3000    2.1592    0.0000 C   0  0  0  0  0  0  0  0  0  0  0  0
    9.2945    2.0546    0.0000 C   0  0  0  0  0  0  0  0  0  0  0  0
    7.8933    3.0727    0.0000 C   0  0  0  0  0  0  0  0  0  0  0  0
    9.8823    2.8637    0.0000 C   0  0  0  0  0  0  0  0  0  0  0  0
    8.4810    3.8817    0.0000 C   0  0  0  0  0  0  0  0  0  0  0  0
    9.4756    3.7772    0.0000 C   0  0  0  0  0  0  0  0  0  0  0  0
    5.1350   -3.8817    0.0000 C   0  0  0  0  0  0  0  0  0  0  0  0
    3.7320    0.9283    0.0000 H   0  0  0  0  0  0  0  0  0  0  0  0
    2.8660   -0.5717    0.0000 H   0  0  0  0  0  0  0  0  0  0  0  0
    5.6720   -0.5717    0.0000 H   0  0  0  0  0  0  0  0  0  0  0  0
    5.6720   -2.1917    0.0000 H   0  0  0  0  0  0  0  0  0  0  0  0
    6.4699    2.8871    0.0000 H   0  0  0  0  0  0  0  0  0  0  0  0
    9.5467    1.4882    0.0000 H   0  0  0  0  0  0  0  0  0  0  0  0
    7.2767    3.1375    0.0000 H   0  0  0  0  0  0  0  0  0  0  0  0
   10.4989    2.7988    0.0000 H   0  0  0  0  0  0  0  0  0  0  0  0
    8.2289    4.4481    0.0000 H   0  0  0  0  0  0  0  0  0  0  0  0
    9.8400    4.2788    0.0000 H   0  0  0  0  0  0  0  0  0  0  0  0
    2.0000   -2.0717    0.0000 H   0  0  0  0  0  0  0  0  0  0  0  0
    4.8250   -4.4187    0.0000 H   0  0  0  0  0  0  0  0  0  0  0  0
    5.6720   -4.1917    0.0000 H   0  0  0  0  0  0  0  0  0  0  0  0
    5.4450   -3.3448    0.0000 H   0  0  0  0  0  0  0  0  0  0  0  0
  1  8  1  0  0  0  0
  1 15  1  0  0  0  0
  2 14  1  0  0  0  0
  2 23  1  0  0  0  0
  3 12  1  0  0  0  0
  3 34  1  0  0  0  0
  4 13  2  0  0  0  0
  5 13  1  0  0  0  0
  5 15  1  0  0  0  0
  5 28  1  0  0  0  0
  6 15  2  0  0  0  0
  6 17  1  0  0  0  0
  7  9  1  0  0  0  0
  7 10  2  0  0  0  0
  7 11  1  0  0  0  0
  8  9  2  3  0  0  0
  8 13  1  0  0  0  0
  9 24  1  0  0  0  0
 10 12  1  0  0  0  0
 10 25  1  0  0  0  0
 11 16  2  0  0  0  0
 11 26  1  0  0  0  0
 12 14  2  0  0  0  0
 14 16  1  0  0  0  0
 16 27  1  0  0  0  0
 17 18  2  0  0  0  0
 17 19  1  0  0  0  0
 18 20  1  0  0  0  0
 18 29  1  0  0  0  0
 19 21  2  0  0  0  0
 19 30  1  0  0  0  0
 20 22  2  0  0  0  0
 20 31  1  0  0  0  0
 21 22  1  0  0  0  0
 21 32  1  0  0  0  0
 22 33  1  0  0  0  0
 23 35  1  0  0  0  0
 23 36  1  0  0  0  0
 23 37  1  0  0  0  0
M  END
> <PUBCHEM_COMPOUND_CID>
135444250

> <PUBCHEM_COMPOUND_CANONICALIZED>
1

> <PUBCHEM_CACTVS_COMPLEXITY>
500

> <PUBCHEM_CACTVS_HBOND_ACCEPTOR>
5

> <PUBCHEM_CACTVS_HBOND_DONOR>
2

> <PUBCHEM_CACTVS_ROTATABLE_BOND>
3

> <PUBCHEM_CACTVS_SUBSKEYS>
AAADccB7MABAAAAAAAAAAAAAAAAAAWAAAAAwYAAAAAAAAAABQAAAHgQQCAAADAyB2AIzxoLABgioAiVSdACCGAFgIhAJiAAG7MgNJiKGuZuAcCNkwBEL+YeQwBAOIAABAAAAQABAAAIAAACAAAAAAAAAAA==

> <PUBCHEM_IUPAC_OPENEYE_NAME>
5-[(3-hydroxy-4-methoxy-phenyl)methylene]-2-phenylimino-thiazolidin-4-one

> <PUBCHEM_IUPAC_CAS_NAME>
5-[(3-hydroxy-4-methoxyphenyl)methylidene]-2-phenylimino-4-thiazolidinone

> <PUBCHEM_IUPAC_NAME_MARKUP>
5-[(3-hydroxy-4-methoxyphenyl)methylidene]-2-phenylimino-1,3-thiazolidin-4-one

> <PUBCHEM_IUPAC_NAME>
5-[(3-hydroxy-4-methoxyphenyl)methylidene]-2-phenylimino-1,3-thiazolidin-4-one

> <PUBCHEM_IUPAC_SYSTEMATIC_NAME>
5-[(4-methoxy-3-oxidanyl-phenyl)methylidene]-2-phenylimino-1,3-thiazolidin-4-one

> <PUBCHEM_IUPAC_TRADITIONAL_NAME>
5-(3-hydroxy-4-methoxy-benzylidene)-2-phenylimino-thiazolidin-4-one

> <PUBCHEM_IUPAC_INCHI>
InChI=1S/C17H14N2O3S/c1-22-14-8-7-11(9-13(14)20)10-15-16(21)19-17(23-15)18-12-5-3-2-4-6-12/h2-10,20H,1H3,(H,18,19,21)

> <PUBCHEM_IUPAC_INCHIKEY>
SQXSMLLCDWJNAC-UHFFFAOYSA-N

> <PUBCHEM_XLOGP3_AA>
3.6

> <PUBCHEM_EXACT_MASS>
326.07251349

> <PUBCHEM_MOLECULAR_FORMULA>
C17H14N2O3S

> <PUBCHEM_MOLECULAR_WEIGHT>
326.4

> <PUBCHEM_SMILES>
COC1=C(C=C(C=C1)C=C2C(=O)NC(=NC3=CC=CC=C3)S2)O

> <PUBCHEM_OPENEYE_CAN_SMILES>
COC1=C(C=C(C=C1)C=C2C(=O)NC(=NC3=CC=CC=C3)S2)O

> <PUBCHEM_OPENEYE_ISO_SMILES>
COC1=C(C=C(C=C1)C=C2C(=O)NC(=NC3=CC=CC=C3)S2)O

> <PUBCHEM_CACTVS_TPSA>
96.2

> <PUBCHEM_MONOISOTOPIC_WEIGHT>
326.07251349

> <PUBCHEM_TOTAL_CHARGE>
0

> <PUBCHEM_HEAVY_ATOM_COUNT>
23

> <PUBCHEM_ATOM_DEF_STEREO_COUNT>
0

> <PUBCHEM_ATOM_UDEF_STEREO_COUNT>
0

> <PUBCHEM_BOND_DEF_STEREO_COUNT>
0

> <PUBCHEM_BOND_UDEF_STEREO_COUNT>
1

> <PUBCHEM_ISOTOPIC_ATOM_COUNT>
0

> <PUBCHEM_COMPONENT_COUNT>
1

> <PUBCHEM_CACTVS_TAUTO_COUNT>
-1

> <PUBCHEM_COORDINATE_TYPE>
1
5
255

> <PUBCHEM_BONDANNOTATIONS>
10  12  8
11  16  8
12  14  8
14  16  8
17  18  8
17  19  8
18  20  8
19  21  8
20  22  8
21  22  8
7  10  8
7  11  8
8  9  1

$$$$
