44328637
  -OEChem-03202505332D

 43 45  0     0  0  0  0  0  0999 V2000
    6.5406    4.5318    0.0000 O   0  0  0  0  0  0  0  0  0  0  0  0
    8.6097    1.6839    0.0000 O   0  0  0  0  0  0  0  0  0  0  0  0
    6.5406    1.0116    0.0000 N   0  0  0  0  0  0  0  0  0  0  0  0
    4.6783    1.9669    0.0000 N   0  0  0  0  0  0  0  0  0  0  0  0
    7.8007    3.2717    0.0000 N   0  0  0  0  0  0  0  0  0  0  0  0
    7.6210   -4.0710    0.0000 N   0  0  0  0  0  0  0  0  0  0  0  0
    6.9008   -0.6826    0.0000 C   0  0  0  0  0  0  0  0  0  0  0  0
    7.5699   -1.4257    0.0000 C   0  0  0  0  0  0  0  0  0  0  0  0
    7.2098    0.2685    0.0000 C   0  0  0  0  0  0  0  0  0  0  0  0
    6.2619    2.7717    0.0000 C   0  0  0  0  0  0  0  0  0  0  0  0
    6.8497    1.9627    0.0000 C   0  0  0  0  0  0  0  0  0  0  0  0
    5.2619    2.7717    0.0000 C   0  0  0  0  0  0  0  0  0  0  0  0
    7.2609   -2.3768    0.0000 C   0  0  0  0  0  0  0  0  0  0  0  0
    3.7320    2.2717    0.0000 C   0  0  0  0  0  0  0  0  0  0  0  0
    3.7320    3.2717    0.0000 C   0  0  0  0  0  0  0  0  0  0  0  0
    4.6783    3.5764    0.0000 C   0  0  0  0  0  0  0  0  0  0  0  0
    6.8497    3.5807    0.0000 C   0  0  0  0  0  0  0  0  0  0  0  0
    7.8007    2.2717    0.0000 C   0  0  0  0  0  0  0  0  0  0  0  0
    7.9300   -3.1199    0.0000 C   0  0  0  0  0  0  0  0  0  0  0  0
    2.8660    1.7717    0.0000 C   0  0  0  0  0  0  0  0  0  0  0  0
    2.8660    3.7717    0.0000 C   0  0  0  0  0  0  0  0  0  0  0  0
    2.0000    2.2717    0.0000 C   0  0  0  0  0  0  0  0  0  0  0  0
    2.0000    3.2717    0.0000 C   0  0  0  0  0  0  0  0  0  0  0  0
    6.3533   -0.3915    0.0000 H   0  0  0  0  0  0  0  0  0  0  0  0
    6.5190   -1.1712    0.0000 H   0  0  0  0  0  0  0  0  0  0  0  0
    8.1173   -1.7168    0.0000 H   0  0  0  0  0  0  0  0  0  0  0  0
    7.9516   -0.9372    0.0000 H   0  0  0  0  0  0  0  0  0  0  0  0
    7.7572   -0.0226    0.0000 H   0  0  0  0  0  0  0  0  0  0  0  0
    7.5915    0.7570    0.0000 H   0  0  0  0  0  0  0  0  0  0  0  0
    6.7134   -2.0857    0.0000 H   0  0  0  0  0  0  0  0  0  0  0  0
    6.8792   -2.8654    0.0000 H   0  0  0  0  0  0  0  0  0  0  0  0
    5.9342    0.8827    0.0000 H   0  0  0  0  0  0  0  0  0  0  0  0
    4.8709    1.3776    0.0000 H   0  0  0  0  0  0  0  0  0  0  0  0
    4.8709    4.1657    0.0000 H   0  0  0  0  0  0  0  0  0  0  0  0
    8.4774   -3.4110    0.0000 H   0  0  0  0  0  0  0  0  0  0  0  0
    8.3117   -2.6314    0.0000 H   0  0  0  0  0  0  0  0  0  0  0  0
    8.3023    3.6361    0.0000 H   0  0  0  0  0  0  0  0  0  0  0  0
    2.8660    1.1517    0.0000 H   0  0  0  0  0  0  0  0  0  0  0  0
    2.8660    4.3917    0.0000 H   0  0  0  0  0  0  0  0  0  0  0  0
    1.4631    1.9617    0.0000 H   0  0  0  0  0  0  0  0  0  0  0  0
    1.4631    3.5817    0.0000 H   0  0  0  0  0  0  0  0  0  0  0  0
    8.0358   -4.5318    0.0000 H   0  0  0  0  0  0  0  0  0  0  0  0
    7.0145   -4.1999    0.0000 H   0  0  0  0  0  0  0  0  0  0  0  0
  1 17  2  0  0  0  0
  2 18  2  0  0  0  0
  3  9  1  0  0  0  0
  3 11  1  0  0  0  0
  3 32  1  0  0  0  0
  4 12  1  0  0  0  0
  4 14  1  0  0  0  0
  4 33  1  0  0  0  0
  5 17  1  0  0  0  0
  5 18  1  0  0  0  0
  5 37  1  0  0  0  0
  6 19  1  0  0  0  0
  6 42  1  0  0  0  0
  6 43  1  0  0  0  0
  7  8  1  0  0  0  0
  7  9  1  0  0  0  0
  7 24  1  0  0  0  0
  7 25  1  0  0  0  0
  8 13  1  0  0  0  0
  8 26  1  0  0  0  0
  8 27  1  0  0  0  0
  9 28  1  0  0  0  0
  9 29  1  0  0  0  0
 10 11  2  0  0  0  0
 10 12  1  0  0  0  0
 10 17  1  0  0  0  0
 11 18  1  0  0  0  0
 12 16  2  0  0  0  0
 13 19  1  0  0  0  0
 13 30  1  0  0  0  0
 13 31  1  0  0  0  0
 14 15  1  0  0  0  0
 14 20  2  0  0  0  0
 15 16  1  0  0  0  0
 15 21  2  0  0  0  0
 16 34  1  0  0  0  0
 19 35  1  0  0  0  0
 19 36  1  0  0  0  0
 20 22  1  0  0  0  0
 20 38  1  0  0  0  0
 21 23  1  0  0  0  0
 21 39  1  0  0  0  0
 22 23  2  0  0  0  0
 22 40  1  0  0  0  0
 23 41  1  0  0  0  0
M  END
> <PUBCHEM_COMPOUND_CID>
44328637

> <PUBCHEM_COMPOUND_CANONICALIZED>
1

> <PUBCHEM_CACTVS_COMPLEXITY>
503

> <PUBCHEM_CACTVS_HBOND_ACCEPTOR>
4

> <PUBCHEM_CACTVS_HBOND_DONOR>
4

> <PUBCHEM_CACTVS_ROTATABLE_BOND>
7

> <PUBCHEM_CACTVS_SUBSKEYS>
AAADceB7sAAAAAAAAAAAAAAAAAAAAWIAAAAwAAAAAAAAAFgB8AAAHgAQAAAADAjBngQwwPLJkACoAyVyVACCgCAhAiAImaG4ZNgIYPrA1bGUIAhglCDIyUcYiICOAAAAAAACAAAAAAAAAAQAAAAAAAAAAA==

> <PUBCHEM_IUPAC_OPENEYE_NAME>
3-(5-aminopentylamino)-4-(1H-indol-2-yl)pyrrole-2,5-dione

> <PUBCHEM_IUPAC_CAS_NAME>
3-(5-aminopentylamino)-4-(1H-indol-2-yl)pyrrole-2,5-dione

> <PUBCHEM_IUPAC_NAME_MARKUP>
3-(5-aminopentylamino)-4-(1<I>H</I>-indol-2-yl)pyrrole-2,5-dione

> <PUBCHEM_IUPAC_NAME>
3-(5-aminopentylamino)-4-(1H-indol-2-yl)pyrrole-2,5-dione

> <PUBCHEM_IUPAC_SYSTEMATIC_NAME>
3-(5-azanylpentylamino)-4-(1H-indol-2-yl)pyrrole-2,5-dione

> <PUBCHEM_IUPAC_TRADITIONAL_NAME>
3-(5-aminopentylamino)-4-(1H-indol-2-yl)-3-pyrroline-2,5-quinone

> <PUBCHEM_IUPAC_INCHI>
InChI=1S/C17H20N4O2/c18-8-4-1-5-9-19-15-14(16(22)21-17(15)23)13-10-11-6-2-3-7-12(11)20-13/h2-3,6-7,10,20H,1,4-5,8-9,18H2,(H2,19,21,22,23)

> <PUBCHEM_IUPAC_INCHIKEY>
OHTSDTQTQRKNEN-UHFFFAOYSA-N

> <PUBCHEM_XLOGP3_AA>
1.4

> <PUBCHEM_EXACT_MASS>
312.15862589

> <PUBCHEM_MOLECULAR_FORMULA>
C17H20N4O2

> <PUBCHEM_MOLECULAR_WEIGHT>
312.37

> <PUBCHEM_SMILES>
C1=CC=C2C(=C1)C=C(N2)C3=C(C(=O)NC3=O)NCCCCCN

> <PUBCHEM_OPENEYE_CAN_SMILES>
C1=CC=C2C(=C1)C=C(N2)C3=C(C(=O)NC3=O)NCCCCCN

> <PUBCHEM_OPENEYE_ISO_SMILES>
C1=CC=C2C(=C1)C=C(N2)C3=C(C(=O)NC3=O)NCCCCCN

> <PUBCHEM_CACTVS_TPSA>
100

> <PUBCHEM_MONOISOTOPIC_WEIGHT>
312.15862589

> <PUBCHEM_TOTAL_CHARGE>
0

> <PUBCHEM_HEAVY_ATOM_COUNT>
23

> <PUBCHEM_ATOM_DEF_STEREO_COUNT>
0

> <PUBCHEM_ATOM_UDEF_STEREO_COUNT>
0

> <PUBCHEM_BOND_DEF_STEREO_COUNT>
0

> <PUBCHEM_BOND_UDEF_STEREO_COUNT>
0

> <PUBCHEM_ISOTOPIC_ATOM_COUNT>
0

> <PUBCHEM_COMPONENT_COUNT>
1

> <PUBCHEM_CACTVS_TAUTO_COUNT>
-1

> <PUBCHEM_COORDINATE_TYPE>
1
5
255

> <PUBCHEM_BONDANNOTATIONS>
12  16  8
14  15  8
14  20  8
15  16  8
15  21  8
20  22  8
21  23  8
22  23  8
4  12  8
4  14  8

$$$$
