57412684
  -OEChem-03202504342D

 64 68  0     0  0  0  0  0  0999 V2000
   10.6766    0.1464    0.0000 S   0  0  0  0  0  0  0  0  0  0  0  0
   11.6298   -1.3592    0.0000 S   0  0  0  0  0  0  0  0  0  0  0  0
    2.0000    4.1810    0.0000 O   0  0  0  0  0  0  0  0  0  0  0  0
    7.1962    3.1810    0.0000 O   0  0  0  0  0  0  0  0  0  0  0  0
   14.5920   -1.8104    0.0000 O   0  0  0  0  0  0  0  0  0  0  0  0
    3.7320    3.1810    0.0000 N   0  0  0  0  0  0  0  0  0  0  0  0
   10.6882    3.2157    0.0000 N   0  0  0  0  0  0  0  0  0  0  0  0
   11.5942    1.6602    0.0000 N   0  0  0  0  0  0  0  0  0  0  0  0
   14.3910   -3.5308    0.0000 N   0  0  0  0  0  0  0  0  0  0  0  0
   13.0016   -2.4966    0.0000 N   0  0  0  0  0  0  0  0  0  0  0  0
   12.4550    0.0326    0.0000 N   0  0  0  0  0  0  0  0  0  0  0  0
   13.1155   -0.7182    0.0000 N   0  0  0  0  0  0  0  0  0  0  0  0
    2.8660    2.6810    0.0000 C   0  0  0  0  0  0  0  0  0  0  0  0
    3.7320    4.1810    0.0000 C   0  0  0  0  0  0  0  0  0  0  0  0
    4.5981    2.6810    0.0000 C   0  0  0  0  0  0  0  0  0  0  0  0
    2.0000    3.1810    0.0000 C   0  0  0  0  0  0  0  0  0  0  0  0
    2.8660    4.6810    0.0000 C   0  0  0  0  0  0  0  0  0  0  0  0
    5.4641    3.1810    0.0000 C   0  0  0  0  0  0  0  0  0  0  0  0
    6.3301    2.6810    0.0000 C   0  0  0  0  0  0  0  0  0  0  0  0
    8.0622    2.6810    0.0000 C   0  0  0  0  0  0  0  0  0  0  0  0
    8.9282    3.1810    0.0000 C   0  0  0  0  0  0  0  0  0  0  0  0
    8.0622    1.6810    0.0000 C   0  0  0  0  0  0  0  0  0  0  0  0
    9.7942    2.6810    0.0000 C   0  0  0  0  0  0  0  0  0  0  0  0
    9.7942    1.6810    0.0000 C   0  0  0  0  0  0  0  0  0  0  0  0
    8.9282    1.1810    0.0000 C   0  0  0  0  0  0  0  0  0  0  0  0
   10.6882    1.1464    0.0000 C   0  0  0  0  0  0  0  0  0  0  0  0
   11.5942    2.7018    0.0000 C   0  0  0  0  0  0  0  0  0  0  0  0
   15.3843   -3.6468    0.0000 C   0  0  0  0  0  0  0  0  0  0  0  0
   17.3708   -3.8789    0.0000 C   0  0  0  0  0  0  0  0  0  0  0  0
   11.5368   -0.3635    0.0000 C   0  0  0  0  0  0  0  0  0  0  0  0
   15.7804   -4.5650    0.0000 C   0  0  0  0  0  0  0  0  0  0  0  0
   15.9814   -2.8447    0.0000 C   0  0  0  0  0  0  0  0  0  0  0  0
   16.7737   -4.6810    0.0000 C   0  0  0  0  0  0  0  0  0  0  0  0
   16.9746   -2.9607    0.0000 C   0  0  0  0  0  0  0  0  0  0  0  0
   18.3640   -3.9949    0.0000 C   0  0  0  0  0  0  0  0  0  0  0  0
   12.6055   -1.5784    0.0000 C   0  0  0  0  0  0  0  0  0  0  0  0
   13.9949   -2.6126    0.0000 C   0  0  0  0  0  0  0  0  0  0  0  0
    2.4675    2.2061    0.0000 H   0  0  0  0  0  0  0  0  0  0  0  0
    3.2646    2.2061    0.0000 H   0  0  0  0  0  0  0  0  0  0  0  0
    4.3426    4.0734    0.0000 H   0  0  0  0  0  0  0  0  0  0  0  0
    3.9441    4.7636    0.0000 H   0  0  0  0  0  0  0  0  0  0  0  0
    4.1996    2.2061    0.0000 H   0  0  0  0  0  0  0  0  0  0  0  0
    4.9966    2.2061    0.0000 H   0  0  0  0  0  0  0  0  0  0  0  0
    1.3894    3.2887    0.0000 H   0  0  0  0  0  0  0  0  0  0  0  0
    1.7880    2.5984    0.0000 H   0  0  0  0  0  0  0  0  0  0  0  0
    3.2646    5.1560    0.0000 H   0  0  0  0  0  0  0  0  0  0  0  0
    2.4675    5.1560    0.0000 H   0  0  0  0  0  0  0  0  0  0  0  0
    5.8626    3.6560    0.0000 H   0  0  0  0  0  0  0  0  0  0  0  0
    5.0656    3.6560    0.0000 H   0  0  0  0  0  0  0  0  0  0  0  0
    5.9316    2.2061    0.0000 H   0  0  0  0  0  0  0  0  0  0  0  0
    6.7287    2.2061    0.0000 H   0  0  0  0  0  0  0  0  0  0  0  0
    8.9282    3.8010    0.0000 H   0  0  0  0  0  0  0  0  0  0  0  0
    7.5252    1.3710    0.0000 H   0  0  0  0  0  0  0  0  0  0  0  0
    8.9282    0.5610    0.0000 H   0  0  0  0  0  0  0  0  0  0  0  0
   12.1300    3.0139    0.0000 H   0  0  0  0  0  0  0  0  0  0  0  0
   15.4102   -5.0624    0.0000 H   0  0  0  0  0  0  0  0  0  0  0  0
   15.7358   -2.2754    0.0000 H   0  0  0  0  0  0  0  0  0  0  0  0
   17.0193   -5.2503    0.0000 H   0  0  0  0  0  0  0  0  0  0  0  0
   17.3448   -2.4633    0.0000 H   0  0  0  0  0  0  0  0  0  0  0  0
   14.0208   -4.0282    0.0000 H   0  0  0  0  0  0  0  0  0  0  0  0
   18.2921   -4.6107    0.0000 H   0  0  0  0  0  0  0  0  0  0  0  0
   18.9798   -4.0668    0.0000 H   0  0  0  0  0  0  0  0  0  0  0  0
   18.4360   -3.3791    0.0000 H   0  0  0  0  0  0  0  0  0  0  0  0
   12.6314   -2.9939    0.0000 H   0  0  0  0  0  0  0  0  0  0  0  0
  1 26  1  0  0  0  0
  1 30  1  0  0  0  0
  2 30  1  0  0  0  0
  2 36  1  0  0  0  0
  3 16  1  0  0  0  0
  3 17  1  0  0  0  0
  4 19  1  0  0  0  0
  4 20  1  0  0  0  0
  5 37  2  0  0  0  0
  6 13  1  0  0  0  0
  6 14  1  0  0  0  0
  6 15  1  0  0  0  0
  7 23  1  0  0  0  0
  7 27  2  0  0  0  0
  8 26  2  0  0  0  0
  8 27  1  0  0  0  0
  9 28  1  0  0  0  0
  9 37  1  0  0  0  0
  9 60  1  0  0  0  0
 10 36  1  0  0  0  0
 10 37  1  0  0  0  0
 10 64  1  0  0  0  0
 11 12  1  0  0  0  0
 11 30  2  0  0  0  0
 12 36  2  0  0  0  0
 13 16  1  0  0  0  0
 13 38  1  0  0  0  0
 13 39  1  0  0  0  0
 14 17  1  0  0  0  0
 14 40  1  0  0  0  0
 14 41  1  0  0  0  0
 15 18  1  0  0  0  0
 15 42  1  0  0  0  0
 15 43  1  0  0  0  0
 16 44  1  0  0  0  0
 16 45  1  0  0  0  0
 17 46  1  0  0  0  0
 17 47  1  0  0  0  0
 18 19  1  0  0  0  0
 18 48  1  0  0  0  0
 18 49  1  0  0  0  0
 19 50  1  0  0  0  0
 19 51  1  0  0  0  0
 20 21  2  0  0  0  0
 20 22  1  0  0  0  0
 21 23  1  0  0  0  0
 21 52  1  0  0  0  0
 22 25  2  0  0  0  0
 22 53  1  0  0  0  0
 23 24  2  0  0  0  0
 24 25  1  0  0  0  0
 24 26  1  0  0  0  0
 25 54  1  0  0  0  0
 27 55  1  0  0  0  0
 28 31  2  0  0  0  0
 28 32  1  0  0  0  0
 29 33  2  0  0  0  0
 29 34  1  0  0  0  0
 29 35  1  0  0  0  0
 31 33  1  0  0  0  0
 31 56  1  0  0  0  0
 32 34  2  0  0  0  0
 32 57  1  0  0  0  0
 33 58  1  0  0  0  0
 34 59  1  0  0  0  0
 35 61  1  0  0  0  0
 35 62  1  0  0  0  0
 35 63  1  0  0  0  0
M  END
> <PUBCHEM_COMPOUND_CID>
57412684

> <PUBCHEM_COMPOUND_CANONICALIZED>
1

> <PUBCHEM_CACTVS_COMPLEXITY>
712

> <PUBCHEM_CACTVS_HBOND_ACCEPTOR>
10

> <PUBCHEM_CACTVS_HBOND_DONOR>
2

> <PUBCHEM_CACTVS_ROTATABLE_BOND>
9

> <PUBCHEM_CACTVS_SUBSKEYS>
AAADceB7sABgAAAAAAAAAAAAAAAAAWAAAAA8eIEAAAAAAACx/AAAHgQYAAAADAzh3gY31/fIFAiuAyRjdACS2StxKrkN2DA+bJiOLqLk+duHPCz+1RvY6CeQ0AMOKAAAAgACAABQAAAEAAQAAAAAAAAAAA==

> <PUBCHEM_IUPAC_OPENEYE_NAME>
1-[5-[7-(3-morpholinopropoxy)quinazolin-4-yl]sulfanyl-1,3,4-thiadiazol-2-yl]-3-(p-tolyl)urea

> <PUBCHEM_IUPAC_CAS_NAME>
1-(4-methylphenyl)-3-[5-[[7-[3-(4-morpholinyl)propoxy]-4-quinazolinyl]thio]-1,3,4-thiadiazol-2-yl]urea

> <PUBCHEM_IUPAC_NAME_MARKUP>
1-(4-methylphenyl)-3-[5-[7-(3-morpholin-4-ylpropoxy)quinazolin-4-yl]sulfanyl-1,3,4-thiadiazol-2-yl]urea

> <PUBCHEM_IUPAC_NAME>
1-(4-methylphenyl)-3-[5-[7-(3-morpholin-4-ylpropoxy)quinazolin-4-yl]sulfanyl-1,3,4-thiadiazol-2-yl]urea

> <PUBCHEM_IUPAC_SYSTEMATIC_NAME>
1-(4-methylphenyl)-3-[5-[7-(3-morpholin-4-ylpropoxy)quinazolin-4-yl]sulfanyl-1,3,4-thiadiazol-2-yl]urea

> <PUBCHEM_IUPAC_TRADITIONAL_NAME>
1-[5-[[7-(3-morpholinopropoxy)quinazolin-4-yl]thio]-1,3,4-thiadiazol-2-yl]-3-(p-tolyl)urea

> <PUBCHEM_IUPAC_INCHI>
InChI=1S/C25H27N7O3S2/c1-17-3-5-18(6-4-17)28-23(33)29-24-30-31-25(37-24)36-22-20-8-7-19(15-21(20)26-16-27-22)35-12-2-9-32-10-13-34-14-11-32/h3-8,15-16H,2,9-14H2,1H3,(H2,28,29,30,33)

> <PUBCHEM_IUPAC_INCHIKEY>
LKXFSTAQMOENSC-UHFFFAOYSA-N

> <PUBCHEM_XLOGP3_AA>
4

> <PUBCHEM_EXACT_MASS>
537.16168010

> <PUBCHEM_MOLECULAR_FORMULA>
C25H27N7O3S2

> <PUBCHEM_MOLECULAR_WEIGHT>
537.7

> <PUBCHEM_SMILES>
CC1=CC=C(C=C1)NC(=O)NC2=NN=C(S2)SC3=NC=NC4=C3C=CC(=C4)OCCCN5CCOCC5

> <PUBCHEM_OPENEYE_CAN_SMILES>
CC1=CC=C(C=C1)NC(=O)NC2=NN=C(S2)SC3=NC=NC4=C3C=CC(=C4)OCCCN5CCOCC5

> <PUBCHEM_OPENEYE_ISO_SMILES>
CC1=CC=C(C=C1)NC(=O)NC2=NN=C(S2)SC3=NC=NC4=C3C=CC(=C4)OCCCN5CCOCC5

> <PUBCHEM_CACTVS_TPSA>
168

> <PUBCHEM_MONOISOTOPIC_WEIGHT>
537.16168010

> <PUBCHEM_TOTAL_CHARGE>
0

> <PUBCHEM_HEAVY_ATOM_COUNT>
37

> <PUBCHEM_ATOM_DEF_STEREO_COUNT>
0

> <PUBCHEM_ATOM_UDEF_STEREO_COUNT>
0

> <PUBCHEM_BOND_DEF_STEREO_COUNT>
0

> <PUBCHEM_BOND_UDEF_STEREO_COUNT>
0

> <PUBCHEM_ISOTOPIC_ATOM_COUNT>
0

> <PUBCHEM_COMPONENT_COUNT>
1

> <PUBCHEM_CACTVS_TAUTO_COUNT>
-1

> <PUBCHEM_COORDINATE_TYPE>
1
5
255

> <PUBCHEM_BONDANNOTATIONS>
11  12  8
11  30  8
12  36  8
2  30  8
2  36  8
20  21  8
20  22  8
21  23  8
22  25  8
23  24  8
24  25  8
24  26  8
28  31  8
28  32  8
29  33  8
29  34  8
31  33  8
32  34  8
7  23  8
7  27  8
8  26  8
8  27  8

$$$$
