49830859
  -OEChem-03202504242D

 28 29  0     0  0  0  0  0  0999 V2000
    2.5000   -2.2562    0.0000 S   0  0  0  0  0  0  0  0  0  0  0  0
    7.9128    0.4462    0.0000 O   0  0  0  0  0  0  0  0  0  0  0  0
    5.3147   -1.0538    0.0000 N   0  0  0  0  0  0  0  0  0  0  0  0
    7.0468   -1.0538    0.0000 N   0  0  0  0  0  0  0  0  0  0  0  0
    5.3147    1.9462    0.0000 N   0  0  0  0  0  0  0  0  0  0  0  0
    2.7166    1.4462    0.0000 N   0  0  0  0  0  0  0  0  0  0  0  0
    4.4487   -0.5538    0.0000 C   0  0  0  0  0  0  0  0  0  0  0  0
    3.5827   -1.0538    0.0000 C   0  0  0  0  0  0  0  0  0  0  0  0
    4.4487    0.4462    0.0000 C   0  0  0  0  0  0  0  0  0  0  0  0
    5.3147    0.9462    0.0000 C   0  0  0  0  0  0  0  0  0  0  0  0
    6.1808   -0.5538    0.0000 C   0  0  0  0  0  0  0  0  0  0  0  0
    6.1808    0.4462    0.0000 C   0  0  0  0  0  0  0  0  0  0  0  0
    2.6691   -0.6470    0.0000 C   0  0  0  0  0  0  0  0  0  0  0  0
    3.4782   -2.0483    0.0000 C   0  0  0  0  0  0  0  0  0  0  0  0
    2.0000   -1.3902    0.0000 C   0  0  0  0  0  0  0  0  0  0  0  0
    7.9128   -0.5538    0.0000 C   0  0  0  0  0  0  0  0  0  0  0  0
    3.5827    0.9462    0.0000 C   0  0  0  0  0  0  0  0  0  0  0  0
    8.7788   -1.0538    0.0000 C   0  0  0  0  0  0  0  0  0  0  0  0
    6.7177    0.7562    0.0000 H   0  0  0  0  0  0  0  0  0  0  0  0
    2.5402   -0.0406    0.0000 H   0  0  0  0  0  0  0  0  0  0  0  0
    3.9389   -2.4632    0.0000 H   0  0  0  0  0  0  0  0  0  0  0  0
    7.0468   -1.6738    0.0000 H   0  0  0  0  0  0  0  0  0  0  0  0
    1.3834   -1.3254    0.0000 H   0  0  0  0  0  0  0  0  0  0  0  0
    5.8517    2.2562    0.0000 H   0  0  0  0  0  0  0  0  0  0  0  0
    4.7778    2.2562    0.0000 H   0  0  0  0  0  0  0  0  0  0  0  0
    8.4688   -1.5907    0.0000 H   0  0  0  0  0  0  0  0  0  0  0  0
    9.3158   -1.3638    0.0000 H   0  0  0  0  0  0  0  0  0  0  0  0
    9.0888   -0.5168    0.0000 H   0  0  0  0  0  0  0  0  0  0  0  0
  1 14  1  0  0  0  0
  1 15  1  0  0  0  0
  2 16  2  0  0  0  0
  3  7  1  0  0  0  0
  3 11  2  0  0  0  0
  4 11  1  0  0  0  0
  4 16  1  0  0  0  0
  4 22  1  0  0  0  0
  5 10  1  0  0  0  0
  5 24  1  0  0  0  0
  5 25  1  0  0  0  0
  6 17  3  0  0  0  0
  7  8  1  0  0  0  0
  7  9  2  0  0  0  0
  8 13  1  0  0  0  0
  8 14  2  0  0  0  0
  9 10  1  0  0  0  0
  9 17  1  0  0  0  0
 10 12  2  0  0  0  0
 11 12  1  0  0  0  0
 12 19  1  0  0  0  0
 13 15  2  0  0  0  0
 13 20  1  0  0  0  0
 14 21  1  0  0  0  0
 15 23  1  0  0  0  0
 16 18  1  0  0  0  0
 18 26  1  0  0  0  0
 18 27  1  0  0  0  0
 18 28  1  0  0  0  0
M  END
> <PUBCHEM_COMPOUND_CID>
49830859

> <PUBCHEM_COMPOUND_CANONICALIZED>
1

> <PUBCHEM_CACTVS_COMPLEXITY>
366

> <PUBCHEM_CACTVS_HBOND_ACCEPTOR>
5

> <PUBCHEM_CACTVS_HBOND_DONOR>
2

> <PUBCHEM_CACTVS_ROTATABLE_BOND>
2

> <PUBCHEM_CACTVS_SUBSKEYS>
AAADccBzoABAAAAAAAAAAAAAAAAAASAAAAAsAAAAAAAAAAAB4AAAHgQQAAAADAiF3gCz8ZLIEAi8BydydACjgKkhCjBJmDgwZJiIoOLg2dGEJAholQLoyC8QgMAOAAAAAAAAAAAAAAAAAAAAAAAAAAAAAA==

> <PUBCHEM_IUPAC_OPENEYE_NAME>
N-[4-amino-5-cyano-6-(3-thienyl)-2-pyridyl]acetamide

> <PUBCHEM_IUPAC_CAS_NAME>
N-[4-amino-5-cyano-6-(3-thiophenyl)-2-pyridinyl]acetamide

> <PUBCHEM_IUPAC_NAME_MARKUP>
<I>N</I>-(4-amino-5-cyano-6-thiophen-3-ylpyridin-2-yl)acetamide

> <PUBCHEM_IUPAC_NAME>
N-(4-amino-5-cyano-6-thiophen-3-ylpyridin-2-yl)acetamide

> <PUBCHEM_IUPAC_SYSTEMATIC_NAME>
N-(4-azanyl-5-cyano-6-thiophen-3-yl-pyridin-2-yl)ethanamide

> <PUBCHEM_IUPAC_TRADITIONAL_NAME>
N-[4-amino-5-cyano-6-(3-thienyl)-2-pyridyl]acetamide

> <PUBCHEM_IUPAC_INCHI>
InChI=1S/C12H10N4OS/c1-7(17)15-11-4-10(14)9(5-13)12(16-11)8-2-3-18-6-8/h2-4,6H,1H3,(H3,14,15,16,17)

> <PUBCHEM_IUPAC_INCHIKEY>
ZFBBVSHFSXNGFK-UHFFFAOYSA-N

> <PUBCHEM_XLOGP3_AA>
1.3

> <PUBCHEM_EXACT_MASS>
258.05753213

> <PUBCHEM_MOLECULAR_FORMULA>
C12H10N4OS

> <PUBCHEM_MOLECULAR_WEIGHT>
258.30

> <PUBCHEM_SMILES>
CC(=O)NC1=NC(=C(C(=C1)N)C#N)C2=CSC=C2

> <PUBCHEM_OPENEYE_CAN_SMILES>
CC(=O)NC1=NC(=C(C(=C1)N)C#N)C2=CSC=C2

> <PUBCHEM_OPENEYE_ISO_SMILES>
CC(=O)NC1=NC(=C(C(=C1)N)C#N)C2=CSC=C2

> <PUBCHEM_CACTVS_TPSA>
120

> <PUBCHEM_MONOISOTOPIC_WEIGHT>
258.05753213

> <PUBCHEM_TOTAL_CHARGE>
0

> <PUBCHEM_HEAVY_ATOM_COUNT>
18

> <PUBCHEM_ATOM_DEF_STEREO_COUNT>
0

> <PUBCHEM_ATOM_UDEF_STEREO_COUNT>
0

> <PUBCHEM_BOND_DEF_STEREO_COUNT>
0

> <PUBCHEM_BOND_UDEF_STEREO_COUNT>
0

> <PUBCHEM_ISOTOPIC_ATOM_COUNT>
0

> <PUBCHEM_COMPONENT_COUNT>
1

> <PUBCHEM_CACTVS_TAUTO_COUNT>
-1

> <PUBCHEM_COORDINATE_TYPE>
1
5
255

> <PUBCHEM_BONDANNOTATIONS>
1  14  8
1  15  8
10  12  8
11  12  8
13  15  8
3  11  8
3  7  8
7  9  8
8  13  8
8  14  8
9  10  8

$$$$
