49830787
  -OEChem-03202502372D

 38 40  0     0  0  0  0  0  0999 V2000
    4.5981    1.1627    0.0000 F   0  0  0  0  0  0  0  0  0  0  0  0
    2.8660    2.1627    0.0000 F   0  0  0  0  0  0  0  0  0  0  0  0
    9.2334   -0.1202    0.0000 O   0  0  0  0  0  0  0  0  0  0  0  0
    7.2764   -2.1421    0.0000 N   0  0  0  0  0  0  0  0  0  0  0  0
    7.5870    0.4179    0.0000 N   0  0  0  0  0  0  0  0  0  0  0  0
    7.8600   -1.3373    0.0000 N   0  0  0  0  0  0  0  0  0  0  0  0
    6.3301   -0.8373    0.0000 C   0  0  0  0  0  0  0  0  0  0  0  0
    6.3301   -1.8373    0.0000 C   0  0  0  0  0  0  0  0  0  0  0  0
    4.5981   -0.8373    0.0000 C   0  0  0  0  0  0  0  0  0  0  0  0
    7.2764   -0.5326    0.0000 C   0  0  0  0  0  0  0  0  0  0  0  0
    5.4641   -0.3373    0.0000 C   0  0  0  0  0  0  0  0  0  0  0  0
    5.4641   -2.3373    0.0000 C   0  0  0  0  0  0  0  0  0  0  0  0
    4.5981   -1.8373    0.0000 C   0  0  0  0  0  0  0  0  0  0  0  0
    3.7320   -0.3373    0.0000 C   0  0  0  0  0  0  0  0  0  0  0  0
    8.8762    1.5747    0.0000 C   0  0  0  0  0  0  0  0  0  0  0  0
    9.8547    1.7809    0.0000 C   0  0  0  0  0  0  0  0  0  0  0  0
    8.5655    0.6241    0.0000 C   0  0  0  0  0  0  0  0  0  0  0  0
    3.7320    0.6627    0.0000 C   0  0  0  0  0  0  0  0  0  0  0  0
    2.8660   -0.8373    0.0000 C   0  0  0  0  0  0  0  0  0  0  0  0
   10.1653    2.7314    0.0000 C   0  0  0  0  0  0  0  0  0  0  0  0
    2.8660    1.1627    0.0000 C   0  0  0  0  0  0  0  0  0  0  0  0
    2.0000   -0.3373    0.0000 C   0  0  0  0  0  0  0  0  0  0  0  0
    2.0000    0.6627    0.0000 C   0  0  0  0  0  0  0  0  0  0  0  0
    5.4641    0.2827    0.0000 H   0  0  0  0  0  0  0  0  0  0  0  0
    5.4641   -2.9573    0.0000 H   0  0  0  0  0  0  0  0  0  0  0  0
    4.0611   -2.1473    0.0000 H   0  0  0  0  0  0  0  0  0  0  0  0
    7.4690   -2.7314    0.0000 H   0  0  0  0  0  0  0  0  0  0  0  0
    8.8556    2.1943    0.0000 H   0  0  0  0  0  0  0  0  0  0  0  0
    8.2624    1.6620    0.0000 H   0  0  0  0  0  0  0  0  0  0  0  0
    7.1730    0.8794    0.0000 H   0  0  0  0  0  0  0  0  0  0  0  0
    9.8752    1.1612    0.0000 H   0  0  0  0  0  0  0  0  0  0  0  0
   10.4685    1.6935    0.0000 H   0  0  0  0  0  0  0  0  0  0  0  0
    2.8660   -1.4573    0.0000 H   0  0  0  0  0  0  0  0  0  0  0  0
   10.7547    2.5388    0.0000 H   0  0  0  0  0  0  0  0  0  0  0  0
   10.3580    3.3207    0.0000 H   0  0  0  0  0  0  0  0  0  0  0  0
    9.5760    2.9240    0.0000 H   0  0  0  0  0  0  0  0  0  0  0  0
    1.4631   -0.6473    0.0000 H   0  0  0  0  0  0  0  0  0  0  0  0
    1.4631    0.9727    0.0000 H   0  0  0  0  0  0  0  0  0  0  0  0
  1 18  1  0  0  0  0
  2 21  1  0  0  0  0
  3 17  2  0  0  0  0
  4  6  1  0  0  0  0
  4  8  1  0  0  0  0
  4 27  1  0  0  0  0
  5 10  1  0  0  0  0
  5 17  1  0  0  0  0
  5 30  1  0  0  0  0
  6 10  2  0  0  0  0
  7  8  2  0  0  0  0
  7 10  1  0  0  0  0
  7 11  1  0  0  0  0
  8 12  1  0  0  0  0
  9 11  2  0  0  0  0
  9 13  1  0  0  0  0
  9 14  1  0  0  0  0
 11 24  1  0  0  0  0
 12 13  2  0  0  0  0
 12 25  1  0  0  0  0
 13 26  1  0  0  0  0
 14 18  2  0  0  0  0
 14 19  1  0  0  0  0
 15 16  1  0  0  0  0
 15 17  1  0  0  0  0
 15 28  1  0  0  0  0
 15 29  1  0  0  0  0
 16 20  1  0  0  0  0
 16 31  1  0  0  0  0
 16 32  1  0  0  0  0
 18 21  1  0  0  0  0
 19 22  2  0  0  0  0
 19 33  1  0  0  0  0
 20 34  1  0  0  0  0
 20 35  1  0  0  0  0
 20 36  1  0  0  0  0
 21 23  2  0  0  0  0
 22 23  1  0  0  0  0
 22 37  1  0  0  0  0
 23 38  1  0  0  0  0
M  END
> <PUBCHEM_COMPOUND_CID>
49830787

> <PUBCHEM_COMPOUND_CANONICALIZED>
1

> <PUBCHEM_CACTVS_COMPLEXITY>
423

> <PUBCHEM_CACTVS_HBOND_ACCEPTOR>
4

> <PUBCHEM_CACTVS_HBOND_DONOR>
2

> <PUBCHEM_CACTVS_ROTATABLE_BOND>
4

> <PUBCHEM_CACTVS_SUBSKEYS>
AAADccB7IYAAAAAAAAAAAAAAAAAAAWAAAAAwYAAAAAAAAFgB9AAAHwAYAAAADAiBnggz8PLjAACqAydycACSBAIhAgAduSEwZJiIILLA2dGEpAhwnQLIyAcQgMAOiAACAAACAAAQAAQAAAQAAAAAAAAAAA==

> <PUBCHEM_IUPAC_OPENEYE_NAME>
N-[5-(2,3-difluorophenyl)-1H-indazol-3-yl]butanamide

> <PUBCHEM_IUPAC_CAS_NAME>
N-[5-(2,3-difluorophenyl)-1H-indazol-3-yl]butanamide

> <PUBCHEM_IUPAC_NAME_MARKUP>
<I>N</I>-[5-(2,3-difluorophenyl)-1<I>H</I>-indazol-3-yl]butanamide

> <PUBCHEM_IUPAC_NAME>
N-[5-(2,3-difluorophenyl)-1H-indazol-3-yl]butanamide

> <PUBCHEM_IUPAC_SYSTEMATIC_NAME>
N-[5-[2,3-bis(fluoranyl)phenyl]-1H-indazol-3-yl]butanamide

> <PUBCHEM_IUPAC_TRADITIONAL_NAME>
N-[5-(2,3-difluorophenyl)-1H-indazol-3-yl]butyramide

> <PUBCHEM_IUPAC_INCHI>
InChI=1S/C17H15F2N3O/c1-2-4-15(23)20-17-12-9-10(7-8-14(12)21-22-17)11-5-3-6-13(18)16(11)19/h3,5-9H,2,4H2,1H3,(H2,20,21,22,23)

> <PUBCHEM_IUPAC_INCHIKEY>
YWITWZUKNXWOSD-UHFFFAOYSA-N

> <PUBCHEM_XLOGP3_AA>
3.7

> <PUBCHEM_EXACT_MASS>
315.11831843

> <PUBCHEM_MOLECULAR_FORMULA>
C17H15F2N3O

> <PUBCHEM_MOLECULAR_WEIGHT>
315.32

> <PUBCHEM_SMILES>
CCCC(=O)NC1=NNC2=C1C=C(C=C2)C3=C(C(=CC=C3)F)F

> <PUBCHEM_OPENEYE_CAN_SMILES>
CCCC(=O)NC1=NNC2=C1C=C(C=C2)C3=C(C(=CC=C3)F)F

> <PUBCHEM_OPENEYE_ISO_SMILES>
CCCC(=O)NC1=NNC2=C1C=C(C=C2)C3=C(C(=CC=C3)F)F

> <PUBCHEM_CACTVS_TPSA>
57.8

> <PUBCHEM_MONOISOTOPIC_WEIGHT>
315.11831843

> <PUBCHEM_TOTAL_CHARGE>
0

> <PUBCHEM_HEAVY_ATOM_COUNT>
23

> <PUBCHEM_ATOM_DEF_STEREO_COUNT>
0

> <PUBCHEM_ATOM_UDEF_STEREO_COUNT>
0

> <PUBCHEM_BOND_DEF_STEREO_COUNT>
0

> <PUBCHEM_BOND_UDEF_STEREO_COUNT>
0

> <PUBCHEM_ISOTOPIC_ATOM_COUNT>
0

> <PUBCHEM_COMPONENT_COUNT>
1

> <PUBCHEM_CACTVS_TAUTO_COUNT>
-1

> <PUBCHEM_COORDINATE_TYPE>
1
5
255

> <PUBCHEM_BONDANNOTATIONS>
12  13  8
14  18  8
14  19  8
18  21  8
19  22  8
21  23  8
22  23  8
4  6  8
4  8  8
6  10  8
7  10  8
7  11  8
7  8  8
8  12  8
9  11  8
9  13  8

$$$$
