25211575
  -OEChem-03202506292D

 65 69  0     0  0  0  0  0  0999 V2000
    6.8957    4.9666    0.0000 F   0  0  0  0  0  0  0  0  0  0  0  0
    8.6278   -2.0334    0.0000 O   0  0  0  0  0  0  0  0  0  0  0  0
    4.0035   -3.0437    0.0000 O   0  0  0  0  0  0  0  0  0  0  0  0
    9.4938    3.4666    0.0000 O   0  0  0  0  0  0  0  0  0  0  0  0
    5.2927   -4.2005    0.0000 N   0  0  0  0  0  0  0  0  0  0  0  0
    6.8957   -1.0334    0.0000 N   0  0  0  0  0  0  0  0  0  0  0  0
    2.6678   -4.5323    0.0000 N   0  0  0  0  0  0  0  0  0  0  0  0
    8.6278   -1.0334    0.0000 N   0  0  0  0  0  0  0  0  0  0  0  0
    7.7618    0.4666    0.0000 N   0  0  0  0  0  0  0  0  0  0  0  0
   10.4400   -0.8381    0.0000 N   0  0  0  0  0  0  0  0  0  0  0  0
    8.6278    1.9666    0.0000 N   0  0  0  0  0  0  0  0  0  0  0  0
    8.6278    4.9666    0.0000 N   0  0  0  0  0  0  0  0  0  0  0  0
    6.6865   -5.0052    0.0000 C   0  0  0  0  0  0  0  0  0  0  0  0
    5.6978   -5.1082    0.0000 C   0  0  0  0  0  0  0  0  0  0  0  0
    6.8957   -4.0334    0.0000 C   0  0  0  0  0  0  0  0  0  0  0  0
    6.0297   -3.5334    0.0000 C   0  0  0  0  0  0  0  0  0  0  0  0
    6.0297   -2.5334    0.0000 C   0  0  0  0  0  0  0  0  0  0  0  0
    7.7618   -3.5334    0.0000 C   0  0  0  0  0  0  0  0  0  0  0  0
    4.3142   -3.9942    0.0000 C   0  0  0  0  0  0  0  0  0  0  0  0
    6.8957   -2.0334    0.0000 C   0  0  0  0  0  0  0  0  0  0  0  0
    7.7618   -2.5334    0.0000 C   0  0  0  0  0  0  0  0  0  0  0  0
    3.6464   -4.7385    0.0000 C   0  0  0  0  0  0  0  0  0  0  0  0
    7.7618   -0.5334    0.0000 C   0  0  0  0  0  0  0  0  0  0  0  0
    2.0000   -5.2766    0.0000 C   0  0  0  0  0  0  0  0  0  0  0  0
    2.3572   -3.5818    0.0000 C   0  0  0  0  0  0  0  0  0  0  0  0
    9.4938    0.4666    0.0000 C   0  0  0  0  0  0  0  0  0  0  0  0
    9.4938   -0.5334    0.0000 C   0  0  0  0  0  0  0  0  0  0  0  0
    8.6278    0.9666    0.0000 C   0  0  0  0  0  0  0  0  0  0  0  0
    9.4938   -2.5334    0.0000 C   0  0  0  0  0  0  0  0  0  0  0  0
   10.4400    0.7714    0.0000 C   0  0  0  0  0  0  0  0  0  0  0  0
   11.0236   -0.0334    0.0000 C   0  0  0  0  0  0  0  0  0  0  0  0
    7.7618    2.4666    0.0000 C   0  0  0  0  0  0  0  0  0  0  0  0
    7.7618    3.4666    0.0000 C   0  0  0  0  0  0  0  0  0  0  0  0
    6.8957    1.9666    0.0000 C   0  0  0  0  0  0  0  0  0  0  0  0
    6.8957    3.9666    0.0000 C   0  0  0  0  0  0  0  0  0  0  0  0
    6.0297    2.4666    0.0000 C   0  0  0  0  0  0  0  0  0  0  0  0
    6.0297    3.4666    0.0000 C   0  0  0  0  0  0  0  0  0  0  0  0
    8.6278    3.9666    0.0000 C   0  0  0  0  0  0  0  0  0  0  0  0
    6.6856   -5.6252    0.0000 H   0  0  0  0  0  0  0  0  0  0  0  0
    7.3030   -5.0712    0.0000 H   0  0  0  0  0  0  0  0  0  0  0  0
    5.1082   -5.3000    0.0000 H   0  0  0  0  0  0  0  0  0  0  0  0
    5.8265   -5.7147    0.0000 H   0  0  0  0  0  0  0  0  0  0  0  0
    5.4928   -2.2234    0.0000 H   0  0  0  0  0  0  0  0  0  0  0  0
    8.2987   -3.8434    0.0000 H   0  0  0  0  0  0  0  0  0  0  0  0
    3.4151   -5.3138    0.0000 H   0  0  0  0  0  0  0  0  0  0  0  0
    4.1727   -5.0662    0.0000 H   0  0  0  0  0  0  0  0  0  0  0  0
    6.3588   -0.7234    0.0000 H   0  0  0  0  0  0  0  0  0  0  0  0
    1.5385   -4.8626    0.0000 H   0  0  0  0  0  0  0  0  0  0  0  0
    1.5859   -5.7381    0.0000 H   0  0  0  0  0  0  0  0  0  0  0  0
    2.4615   -5.6907    0.0000 H   0  0  0  0  0  0  0  0  0  0  0  0
    2.9465   -3.3892    0.0000 H   0  0  0  0  0  0  0  0  0  0  0  0
    2.1646   -2.9925    0.0000 H   0  0  0  0  0  0  0  0  0  0  0  0
    1.7679   -3.7744    0.0000 H   0  0  0  0  0  0  0  0  0  0  0  0
    9.1838   -3.0703    0.0000 H   0  0  0  0  0  0  0  0  0  0  0  0
   10.0308   -2.8434    0.0000 H   0  0  0  0  0  0  0  0  0  0  0  0
    9.8038   -1.9964    0.0000 H   0  0  0  0  0  0  0  0  0  0  0  0
   10.6326    1.3607    0.0000 H   0  0  0  0  0  0  0  0  0  0  0  0
   10.6326   -1.4274    0.0000 H   0  0  0  0  0  0  0  0  0  0  0  0
    9.1647    2.2766    0.0000 H   0  0  0  0  0  0  0  0  0  0  0  0
   11.6436   -0.0334    0.0000 H   0  0  0  0  0  0  0  0  0  0  0  0
    6.8957    1.3466    0.0000 H   0  0  0  0  0  0  0  0  0  0  0  0
    5.4928    2.1566    0.0000 H   0  0  0  0  0  0  0  0  0  0  0  0
    5.4928    3.7766    0.0000 H   0  0  0  0  0  0  0  0  0  0  0  0
    8.0909    5.2766    0.0000 H   0  0  0  0  0  0  0  0  0  0  0  0
    9.1647    5.2766    0.0000 H   0  0  0  0  0  0  0  0  0  0  0  0
  1 35  1  0  0  0  0
  2 21  1  0  0  0  0
  2 29  1  0  0  0  0
  3 19  2  0  0  0  0
  4 38  2  0  0  0  0
  5 14  1  0  0  0  0
  5 16  1  0  0  0  0
  5 19  1  0  0  0  0
  6 20  1  0  0  0  0
  6 23  1  0  0  0  0
  6 47  1  0  0  0  0
  7 22  1  0  0  0  0
  7 24  1  0  0  0  0
  7 25  1  0  0  0  0
  8 23  2  0  0  0  0
  8 27  1  0  0  0  0
  9 23  1  0  0  0  0
  9 28  2  0  0  0  0
 10 27  1  0  0  0  0
 10 31  1  0  0  0  0
 10 58  1  0  0  0  0
 11 28  1  0  0  0  0
 11 32  1  0  0  0  0
 11 59  1  0  0  0  0
 12 38  1  0  0  0  0
 12 64  1  0  0  0  0
 12 65  1  0  0  0  0
 13 14  1  0  0  0  0
 13 15  1  0  0  0  0
 13 39  1  0  0  0  0
 13 40  1  0  0  0  0
 14 41  1  0  0  0  0
 14 42  1  0  0  0  0
 15 16  1  0  0  0  0
 15 18  2  0  0  0  0
 16 17  2  0  0  0  0
 17 20  1  0  0  0  0
 17 43  1  0  0  0  0
 18 21  1  0  0  0  0
 18 44  1  0  0  0  0
 19 22  1  0  0  0  0
 20 21  2  0  0  0  0
 22 45  1  0  0  0  0
 22 46  1  0  0  0  0
 24 48  1  0  0  0  0
 24 49  1  0  0  0  0
 24 50  1  0  0  0  0
 25 51  1  0  0  0  0
 25 52  1  0  0  0  0
 25 53  1  0  0  0  0
 26 27  2  0  0  0  0
 26 28  1  0  0  0  0
 26 30  1  0  0  0  0
 29 54  1  0  0  0  0
 29 55  1  0  0  0  0
 29 56  1  0  0  0  0
 30 31  2  0  0  0  0
 30 57  1  0  0  0  0
 31 60  1  0  0  0  0
 32 33  2  0  0  0  0
 32 34  1  0  0  0  0
 33 35  1  0  0  0  0
 33 38  1  0  0  0  0
 34 36  2  0  0  0  0
 34 61  1  0  0  0  0
 35 37  2  0  0  0  0
 36 37  1  0  0  0  0
 36 62  1  0  0  0  0
 37 63  1  0  0  0  0
M  END
> <PUBCHEM_COMPOUND_CID>
25211575

> <PUBCHEM_COMPOUND_CANONICALIZED>
1

> <PUBCHEM_CACTVS_COMPLEXITY>
851

> <PUBCHEM_CACTVS_HBOND_ACCEPTOR>
9

> <PUBCHEM_CACTVS_HBOND_DONOR>
4

> <PUBCHEM_CACTVS_ROTATABLE_BOND>
8

> <PUBCHEM_CACTVS_SUBSKEYS>
AAADceB78QAAAAAAAAAAAAAAAAAAAWLAAAA8YIAAAAAAAFgB/AAAHwAQAAAADAzBmw4/9t/JlACoAjd3dACCiCm1IqAJ2aG/bNiObvrE/fuVNahs1hPY6We42LKOCEABAAQCEAAQgAIACAQgAAAAAAAAAA==

> <PUBCHEM_IUPAC_OPENEYE_NAME>
2-[[2-[[1-[2-(dimethylamino)acetyl]-5-methoxy-indolin-6-yl]amino]-7H-pyrrolo[2,3-d]pyrimidin-4-yl]amino]-6-fluoro-benzamide

> <PUBCHEM_IUPAC_CAS_NAME>
2-[[2-[[1-[2-(dimethylamino)-1-oxoethyl]-5-methoxy-2,3-dihydroindol-6-yl]amino]-7H-pyrrolo[2,3-d]pyrimidin-4-yl]amino]-6-fluorobenzamide

> <PUBCHEM_IUPAC_NAME_MARKUP>
2-[[2-[[1-[2-(dimethylamino)acetyl]-5-methoxy-2,3-dihydroindol-6-yl]amino]-7<I>H</I>-pyrrolo[2,3-d]pyrimidin-4-yl]amino]-6-fluorobenzamide

> <PUBCHEM_IUPAC_NAME>
2-[[2-[[1-[2-(dimethylamino)acetyl]-5-methoxy-2,3-dihydroindol-6-yl]amino]-7H-pyrrolo[2,3-d]pyrimidin-4-yl]amino]-6-fluorobenzamide

> <PUBCHEM_IUPAC_SYSTEMATIC_NAME>
2-[[2-[[1-[2-(dimethylamino)ethanoyl]-5-methoxy-2,3-dihydroindol-6-yl]amino]-7H-pyrrolo[2,3-d]pyrimidin-4-yl]amino]-6-fluoranyl-benzamide

> <PUBCHEM_IUPAC_TRADITIONAL_NAME>
2-[[2-[[1-[2-(dimethylamino)acetyl]-5-methoxy-indolin-6-yl]amino]-7H-pyrrolo[2,3-d]pyrimidin-4-yl]amino]-6-fluoro-benzamide

> <PUBCHEM_IUPAC_INCHI>
InChI=1S/C26H27FN8O3/c1-34(2)13-21(36)35-10-8-14-11-20(38-3)18(12-19(14)35)31-26-32-24-15(7-9-29-24)25(33-26)30-17-6-4-5-16(27)22(17)23(28)37/h4-7,9,11-12H,8,10,13H2,1-3H3,(H2,28,37)(H3,29,30,31,32,33)

> <PUBCHEM_IUPAC_INCHIKEY>
WHVFDYQCAMPLMS-UHFFFAOYSA-N

> <PUBCHEM_XLOGP3_AA>
3.4

> <PUBCHEM_EXACT_MASS>
518.21901492

> <PUBCHEM_MOLECULAR_FORMULA>
C26H27FN8O3

> <PUBCHEM_MOLECULAR_WEIGHT>
518.5

> <PUBCHEM_SMILES>
CN(C)CC(=O)N1CCC2=CC(=C(C=C21)NC3=NC4=C(C=CN4)C(=N3)NC5=C(C(=CC=C5)F)C(=O)N)OC

> <PUBCHEM_OPENEYE_CAN_SMILES>
CN(C)CC(=O)N1CCC2=CC(=C(C=C21)NC3=NC4=C(C=CN4)C(=N3)NC5=C(C(=CC=C5)F)C(=O)N)OC

> <PUBCHEM_OPENEYE_ISO_SMILES>
CN(C)CC(=O)N1CCC2=CC(=C(C=C21)NC3=NC4=C(C=CN4)C(=N3)NC5=C(C(=CC=C5)F)C(=O)N)OC

> <PUBCHEM_CACTVS_TPSA>
142

> <PUBCHEM_MONOISOTOPIC_WEIGHT>
518.21901492

> <PUBCHEM_TOTAL_CHARGE>
0

> <PUBCHEM_HEAVY_ATOM_COUNT>
38

> <PUBCHEM_ATOM_DEF_STEREO_COUNT>
0

> <PUBCHEM_ATOM_UDEF_STEREO_COUNT>
0

> <PUBCHEM_BOND_DEF_STEREO_COUNT>
0

> <PUBCHEM_BOND_UDEF_STEREO_COUNT>
0

> <PUBCHEM_ISOTOPIC_ATOM_COUNT>
0

> <PUBCHEM_COMPONENT_COUNT>
1

> <PUBCHEM_CACTVS_TAUTO_COUNT>
-1

> <PUBCHEM_COORDINATE_TYPE>
1
5
255

> <PUBCHEM_BONDANNOTATIONS>
10  27  8
10  31  8
15  16  8
15  18  8
16  17  8
17  20  8
18  21  8
20  21  8
26  27  8
26  28  8
26  30  8
30  31  8
32  33  8
32  34  8
33  35  8
34  36  8
35  37  8
36  37  8
8  23  8
8  27  8
9  23  8
9  28  8

$$$$
