49830791
  -OEChem-03202501312D

 34 36  0     0  0  0  0  0  0999 V2000
    3.0000    2.7015    0.0000 S   0  0  0  0  0  0  0  0  0  0  0  0
    4.8122   -3.1032    0.0000 S   0  0  0  0  0  0  0  0  0  0  0  0
    2.0000    2.7015    0.0000 O   0  0  0  0  0  0  0  0  0  0  0  0
    4.0000    2.7015    0.0000 O   0  0  0  0  0  0  0  0  0  0  0  0
    6.8958   -1.4325    0.0000 O   0  0  0  0  0  0  0  0  0  0  0  0
    2.1340   -2.7985    0.0000 N   0  0  0  0  0  0  0  0  0  0  0  0
    6.8958   -3.1645    0.0000 N   0  0  0  0  0  0  0  0  0  0  0  0
    3.0000   -1.2985    0.0000 C   0  0  0  0  0  0  0  0  0  0  0  0
    3.8660   -1.7985    0.0000 C   0  0  0  0  0  0  0  0  0  0  0  0
    3.0000   -0.2985    0.0000 C   0  0  0  0  0  0  0  0  0  0  0  0
    3.0000    1.7015    0.0000 C   0  0  0  0  0  0  0  0  0  0  0  0
    3.8660   -2.7985    0.0000 C   0  0  0  0  0  0  0  0  0  0  0  0
    3.8660    0.2015    0.0000 C   0  0  0  0  0  0  0  0  0  0  0  0
    2.1340    0.2015    0.0000 C   0  0  0  0  0  0  0  0  0  0  0  0
    4.8122   -1.4938    0.0000 C   0  0  0  0  0  0  0  0  0  0  0  0
    3.8660    1.2015    0.0000 C   0  0  0  0  0  0  0  0  0  0  0  0
    2.1340    1.2015    0.0000 C   0  0  0  0  0  0  0  0  0  0  0  0
    2.1340   -1.7985    0.0000 C   0  0  0  0  0  0  0  0  0  0  0  0
    5.3958   -2.2985    0.0000 C   0  0  0  0  0  0  0  0  0  0  0  0
    3.0000   -3.2985    0.0000 C   0  0  0  0  0  0  0  0  0  0  0  0
    3.0000    3.7015    0.0000 C   0  0  0  0  0  0  0  0  0  0  0  0
    6.3958   -2.2985    0.0000 C   0  0  0  0  0  0  0  0  0  0  0  0
    4.4030   -0.1085    0.0000 H   0  0  0  0  0  0  0  0  0  0  0  0
    1.5970   -0.1085    0.0000 H   0  0  0  0  0  0  0  0  0  0  0  0
    5.0049   -0.9045    0.0000 H   0  0  0  0  0  0  0  0  0  0  0  0
    4.4030    1.5115    0.0000 H   0  0  0  0  0  0  0  0  0  0  0  0
    1.5970    1.5115    0.0000 H   0  0  0  0  0  0  0  0  0  0  0  0
    1.5970   -1.4885    0.0000 H   0  0  0  0  0  0  0  0  0  0  0  0
    3.0000   -3.9185    0.0000 H   0  0  0  0  0  0  0  0  0  0  0  0
    3.6200    3.7015    0.0000 H   0  0  0  0  0  0  0  0  0  0  0  0
    3.0000    4.3215    0.0000 H   0  0  0  0  0  0  0  0  0  0  0  0
    2.3800    3.7015    0.0000 H   0  0  0  0  0  0  0  0  0  0  0  0
    7.5158   -3.1645    0.0000 H   0  0  0  0  0  0  0  0  0  0  0  0
    6.5858   -3.7015    0.0000 H   0  0  0  0  0  0  0  0  0  0  0  0
  1  3  2  0  0  0  0
  1  4  2  0  0  0  0
  1 11  1  0  0  0  0
  1 21  1  0  0  0  0
  2 12  1  0  0  0  0
  2 19  1  0  0  0  0
  5 22  2  0  0  0  0
  6 18  1  0  0  0  0
  6 20  2  0  0  0  0
  7 22  1  0  0  0  0
  7 33  1  0  0  0  0
  7 34  1  0  0  0  0
  8  9  1  0  0  0  0
  8 10  1  0  0  0  0
  8 18  2  0  0  0  0
  9 12  2  0  0  0  0
  9 15  1  0  0  0  0
 10 13  2  0  0  0  0
 10 14  1  0  0  0  0
 11 16  2  0  0  0  0
 11 17  1  0  0  0  0
 12 20  1  0  0  0  0
 13 16  1  0  0  0  0
 13 23  1  0  0  0  0
 14 17  2  0  0  0  0
 14 24  1  0  0  0  0
 15 19  2  0  0  0  0
 15 25  1  0  0  0  0
 16 26  1  0  0  0  0
 17 27  1  0  0  0  0
 18 28  1  0  0  0  0
 19 22  1  0  0  0  0
 20 29  1  0  0  0  0
 21 30  1  0  0  0  0
 21 31  1  0  0  0  0
 21 32  1  0  0  0  0
M  END
> <PUBCHEM_COMPOUND_CID>
49830791

> <PUBCHEM_COMPOUND_CANONICALIZED>
1

> <PUBCHEM_CACTVS_COMPLEXITY>
523

> <PUBCHEM_CACTVS_HBOND_ACCEPTOR>
5

> <PUBCHEM_CACTVS_HBOND_DONOR>
1

> <PUBCHEM_CACTVS_ROTATABLE_BOND>
3

> <PUBCHEM_CACTVS_SUBSKEYS>
AAADccBzMABgAAAAAAAAAAAAAAAAASAAAAA8QAAAAAAAAFgB/AAAHgQQAAAADADB2gS+gdJIEAqsAjF3VHDDoKA1CDBI2D0oRNgIIHLglZGEIQhggADoyYcYiMCOkAAAAAAAAAAgAAAAAAAAAAAAAAAAAA==

> <PUBCHEM_IUPAC_OPENEYE_NAME>
4-(4-methylsulfonylphenyl)thieno[2,3-c]pyridine-2-carboxamide

> <PUBCHEM_IUPAC_CAS_NAME>
4-(4-methylsulfonylphenyl)-2-thieno[2,3-c]pyridinecarboxamide

> <PUBCHEM_IUPAC_NAME_MARKUP>
4-(4-methylsulfonylphenyl)thieno[2,3-c]pyridine-2-carboxamide

> <PUBCHEM_IUPAC_NAME>
4-(4-methylsulfonylphenyl)thieno[2,3-c]pyridine-2-carboxamide

> <PUBCHEM_IUPAC_SYSTEMATIC_NAME>
4-(4-methylsulfonylphenyl)thieno[2,3-c]pyridine-2-carboxamide

> <PUBCHEM_IUPAC_TRADITIONAL_NAME>
4-(4-mesylphenyl)thieno[2,3-c]pyridine-2-carboxamide

> <PUBCHEM_IUPAC_INCHI>
InChI=1S/C15H12N2O3S2/c1-22(19,20)10-4-2-9(3-5-10)12-7-17-8-14-11(12)6-13(21-14)15(16)18/h2-8H,1H3,(H2,16,18)

> <PUBCHEM_IUPAC_INCHIKEY>
OIDZQWOKVFYZSD-UHFFFAOYSA-N

> <PUBCHEM_XLOGP3_AA>
1.9

> <PUBCHEM_EXACT_MASS>
332.02893460

> <PUBCHEM_MOLECULAR_FORMULA>
C15H12N2O3S2

> <PUBCHEM_MOLECULAR_WEIGHT>
332.4

> <PUBCHEM_SMILES>
CS(=O)(=O)C1=CC=C(C=C1)C2=CN=CC3=C2C=C(S3)C(=O)N

> <PUBCHEM_OPENEYE_CAN_SMILES>
CS(=O)(=O)C1=CC=C(C=C1)C2=CN=CC3=C2C=C(S3)C(=O)N

> <PUBCHEM_OPENEYE_ISO_SMILES>
CS(=O)(=O)C1=CC=C(C=C1)C2=CN=CC3=C2C=C(S3)C(=O)N

> <PUBCHEM_CACTVS_TPSA>
127

> <PUBCHEM_MONOISOTOPIC_WEIGHT>
332.02893460

> <PUBCHEM_TOTAL_CHARGE>
0

> <PUBCHEM_HEAVY_ATOM_COUNT>
22

> <PUBCHEM_ATOM_DEF_STEREO_COUNT>
0

> <PUBCHEM_ATOM_UDEF_STEREO_COUNT>
0

> <PUBCHEM_BOND_DEF_STEREO_COUNT>
0

> <PUBCHEM_BOND_UDEF_STEREO_COUNT>
0

> <PUBCHEM_ISOTOPIC_ATOM_COUNT>
0

> <PUBCHEM_COMPONENT_COUNT>
1

> <PUBCHEM_CACTVS_TAUTO_COUNT>
-1

> <PUBCHEM_COORDINATE_TYPE>
1
5
255

> <PUBCHEM_BONDANNOTATIONS>
10  13  8
10  14  8
11  16  8
11  17  8
12  20  8
13  16  8
14  17  8
15  19  8
2  12  8
2  19  8
6  18  8
6  20  8
8  18  8
8  9  8
9  12  8
9  15  8

$$$$
