16718576
  -OEChem-03202507022D

 66 70  0     0  0  0  0  0  0999 V2000
    4.0604   -4.5899    0.0000 O   0  0  0  0  0  0  0  0  0  0  0  0
    3.7032   -1.2856    0.0000 N   0  0  0  0  0  0  0  0  0  0  0  0
    3.1196   -2.0903    0.0000 N   0  0  0  0  0  0  0  0  0  0  0  0
    9.8500    3.4923    0.0000 N   0  0  0  0  0  0  0  0  0  0  0  0
    5.4994   -0.0488    0.0000 N   0  0  0  0  0  0  0  0  0  0  0  0
   11.5781    4.4990    0.0000 N   0  0  0  0  0  0  0  0  0  0  0  0
    7.2995   -0.0419    0.0000 N   0  0  0  0  0  0  0  0  0  0  0  0
    6.3936    1.4790    0.0000 N   0  0  0  0  0  0  0  0  0  0  0  0
    2.4141   -4.0518    0.0000 N   0  0  0  0  0  0  0  0  0  0  0  0
    5.5155   -3.0903    0.0000 C   0  0  0  0  0  0  0  0  0  0  0  0
    6.3815   -2.5903    0.0000 C   0  0  0  0  0  0  0  0  0  0  0  0
    4.6494   -2.5903    0.0000 C   0  0  0  0  0  0  0  0  0  0  0  0
    4.6494   -1.5903    0.0000 C   0  0  0  0  0  0  0  0  0  0  0  0
    6.3815   -1.5903    0.0000 C   0  0  0  0  0  0  0  0  0  0  0  0
    6.0155   -3.9563    0.0000 C   0  0  0  0  0  0  0  0  0  0  0  0
    5.0155   -3.9563    0.0000 C   0  0  0  0  0  0  0  0  0  0  0  0
    5.5155   -1.0903    0.0000 C   0  0  0  0  0  0  0  0  0  0  0  0
    3.7032   -2.8950    0.0000 C   0  0  0  0  0  0  0  0  0  0  0  0
    7.2915   -1.0835    0.0000 C   0  0  0  0  0  0  0  0  0  0  0  0
   10.7179    2.9956    0.0000 C   0  0  0  0  0  0  0  0  0  0  0  0
    9.8461    4.4923    0.0000 C   0  0  0  0  0  0  0  0  0  0  0  0
   11.5820    3.4990    0.0000 C   0  0  0  0  0  0  0  0  0  0  0  0
   10.7102    4.9956    0.0000 C   0  0  0  0  0  0  0  0  0  0  0  0
    3.3926   -0.3350    0.0000 C   0  0  0  0  0  0  0  0  0  0  0  0
    3.3926   -3.8456    0.0000 C   0  0  0  0  0  0  0  0  0  0  0  0
    6.3974    0.4790    0.0000 C   0  0  0  0  0  0  0  0  0  0  0  0
    8.9859    2.9890    0.0000 C   0  0  0  0  0  0  0  0  0  0  0  0
   12.4422    5.0023    0.0000 C   0  0  0  0  0  0  0  0  0  0  0  0
    7.2577    1.9823    0.0000 C   0  0  0  0  0  0  0  0  0  0  0  0
    8.1179    3.4856    0.0000 C   0  0  0  0  0  0  0  0  0  0  0  0
    8.9897    1.9890    0.0000 C   0  0  0  0  0  0  0  0  0  0  0  0
    7.2538    2.9823    0.0000 C   0  0  0  0  0  0  0  0  0  0  0  0
    8.1256    1.4856    0.0000 C   0  0  0  0  0  0  0  0  0  0  0  0
    2.1034   -5.0023    0.0000 C   0  0  0  0  0  0  0  0  0  0  0  0
    6.5936   -3.1729    0.0000 H   0  0  0  0  0  0  0  0  0  0  0  0
    6.9921   -2.4826    0.0000 H   0  0  0  0  0  0  0  0  0  0  0  0
    5.4785   -4.2663    0.0000 H   0  0  0  0  0  0  0  0  0  0  0  0
    6.3255   -4.4933    0.0000 H   0  0  0  0  0  0  0  0  0  0  0  0
    6.5524   -3.6463    0.0000 H   0  0  0  0  0  0  0  0  0  0  0  0
    4.4785   -3.6463    0.0000 H   0  0  0  0  0  0  0  0  0  0  0  0
    4.7055   -4.4933    0.0000 H   0  0  0  0  0  0  0  0  0  0  0  0
    5.5524   -4.2663    0.0000 H   0  0  0  0  0  0  0  0  0  0  0  0
    7.8248   -1.3996    0.0000 H   0  0  0  0  0  0  0  0  0  0  0  0
   10.3212    2.5191    0.0000 H   0  0  0  0  0  0  0  0  0  0  0  0
   11.1183    2.5222    0.0000 H   0  0  0  0  0  0  0  0  0  0  0  0
    9.6318    5.0741    0.0000 H   0  0  0  0  0  0  0  0  0  0  0  0
    9.2360    4.3823    0.0000 H   0  0  0  0  0  0  0  0  0  0  0  0
   11.7963    2.9172    0.0000 H   0  0  0  0  0  0  0  0  0  0  0  0
   12.1922    3.6090    0.0000 H   0  0  0  0  0  0  0  0  0  0  0  0
   11.1069    5.4721    0.0000 H   0  0  0  0  0  0  0  0  0  0  0  0
   10.3098    5.4690    0.0000 H   0  0  0  0  0  0  0  0  0  0  0  0
    3.9819   -0.1424    0.0000 H   0  0  0  0  0  0  0  0  0  0  0  0
    3.2000    0.2543    0.0000 H   0  0  0  0  0  0  0  0  0  0  0  0
    2.8032   -0.5277    0.0000 H   0  0  0  0  0  0  0  0  0  0  0  0
   12.7543    4.4666    0.0000 H   0  0  0  0  0  0  0  0  0  0  0  0
   12.9780    5.3144    0.0000 H   0  0  0  0  0  0  0  0  0  0  0  0
   12.1302    5.5380    0.0000 H   0  0  0  0  0  0  0  0  0  0  0  0
    5.8555    1.7869    0.0000 H   0  0  0  0  0  0  0  0  0  0  0  0
    8.1155    4.1056    0.0000 H   0  0  0  0  0  0  0  0  0  0  0  0
    9.5279    1.6810    0.0000 H   0  0  0  0  0  0  0  0  0  0  0  0
    2.0000   -3.5903    0.0000 H   0  0  0  0  0  0  0  0  0  0  0  0
    6.7157    3.2902    0.0000 H   0  0  0  0  0  0  0  0  0  0  0  0
    8.1280    0.8656    0.0000 H   0  0  0  0  0  0  0  0  0  0  0  0
    1.5141   -4.8097    0.0000 H   0  0  0  0  0  0  0  0  0  0  0  0
    1.9108   -5.5916    0.0000 H   0  0  0  0  0  0  0  0  0  0  0  0
    2.6927   -5.1949    0.0000 H   0  0  0  0  0  0  0  0  0  0  0  0
  1 25  2  0  0  0  0
  2  3  1  0  0  0  0
  2 13  1  0  0  0  0
  2 24  1  0  0  0  0
  3 18  2  0  0  0  0
  4 20  1  0  0  0  0
  4 21  1  0  0  0  0
  4 27  1  0  0  0  0
  5 17  2  0  0  0  0
  5 26  1  0  0  0  0
  6 22  1  0  0  0  0
  6 23  1  0  0  0  0
  6 28  1  0  0  0  0
  7 19  1  0  0  0  0
  7 26  2  0  0  0  0
  8 26  1  0  0  0  0
  8 29  1  0  0  0  0
  8 58  1  0  0  0  0
  9 25  1  0  0  0  0
  9 34  1  0  0  0  0
  9 61  1  0  0  0  0
 10 11  1  0  0  0  0
 10 12  1  0  0  0  0
 10 15  1  0  0  0  0
 10 16  1  0  0  0  0
 11 14  1  0  0  0  0
 11 35  1  0  0  0  0
 11 36  1  0  0  0  0
 12 13  2  0  0  0  0
 12 18  1  0  0  0  0
 13 17  1  0  0  0  0
 14 17  1  0  0  0  0
 14 19  2  0  0  0  0
 15 37  1  0  0  0  0
 15 38  1  0  0  0  0
 15 39  1  0  0  0  0
 16 40  1  0  0  0  0
 16 41  1  0  0  0  0
 16 42  1  0  0  0  0
 18 25  1  0  0  0  0
 19 43  1  0  0  0  0
 20 22  1  0  0  0  0
 20 44  1  0  0  0  0
 20 45  1  0  0  0  0
 21 23  1  0  0  0  0
 21 46  1  0  0  0  0
 21 47  1  0  0  0  0
 22 48  1  0  0  0  0
 22 49  1  0  0  0  0
 23 50  1  0  0  0  0
 23 51  1  0  0  0  0
 24 52  1  0  0  0  0
 24 53  1  0  0  0  0
 24 54  1  0  0  0  0
 27 30  2  0  0  0  0
 27 31  1  0  0  0  0
 28 55  1  0  0  0  0
 28 56  1  0  0  0  0
 28 57  1  0  0  0  0
 29 32  2  0  0  0  0
 29 33  1  0  0  0  0
 30 32  1  0  0  0  0
 30 59  1  0  0  0  0
 31 33  2  0  0  0  0
 31 60  1  0  0  0  0
 32 62  1  0  0  0  0
 33 63  1  0  0  0  0
 34 64  1  0  0  0  0
 34 65  1  0  0  0  0
 34 66  1  0  0  0  0
M  END
> <PUBCHEM_COMPOUND_CID>
16718576

> <PUBCHEM_COMPOUND_CANONICALIZED>
1

> <PUBCHEM_CACTVS_COMPLEXITY>
718

> <PUBCHEM_CACTVS_HBOND_ACCEPTOR>
7

> <PUBCHEM_CACTVS_HBOND_DONOR>
2

> <PUBCHEM_CACTVS_ROTATABLE_BOND>
4

> <PUBCHEM_CACTVS_SUBSKEYS>
AAADcfB74AAAAAAAAAAAAAAAAAAAAWAAAAA8eIEAAAAAAFix8AAAHgAYAAAADgjBngQ/0JfIEACqAzV3dACShCk3gqAZ2KGoZNiIaLLA3dGUpQhomgLIySccicCfgACAAAAAAACQAQSAACQAQAAAAAAAAA==

> <PUBCHEM_IUPAC_OPENEYE_NAME>
N,1,4,4-tetramethyl-8-[4-(4-methylpiperazin-1-yl)anilino]-5H-pyrazolo[4,3-h]quinazoline-3-carboxamide

> <PUBCHEM_IUPAC_CAS_NAME>
N,1,4,4-tetramethyl-8-[4-(4-methyl-1-piperazinyl)anilino]-5H-pyrazolo[4,3-h]quinazoline-3-carboxamide

> <PUBCHEM_IUPAC_NAME_MARKUP>
<I>N</I>,1,4,4-tetramethyl-8-[4-(4-methylpiperazin-1-yl)anilino]-5<I>H</I>-pyrazolo[4,3-h]quinazoline-3-carboxamide

> <PUBCHEM_IUPAC_NAME>
N,1,4,4-tetramethyl-8-[4-(4-methylpiperazin-1-yl)anilino]-5H-pyrazolo[4,3-h]quinazoline-3-carboxamide

> <PUBCHEM_IUPAC_SYSTEMATIC_NAME>
N,1,4,4-tetramethyl-8-[[4-(4-methylpiperazin-1-yl)phenyl]amino]-5H-pyrazolo[4,3-h]quinazoline-3-carboxamide

> <PUBCHEM_IUPAC_TRADITIONAL_NAME>
N,1,4,4-tetramethyl-8-[4-(4-methylpiperazino)anilino]-5H-pyrazolo[4,3-h]quinazoline-3-carboxamide

> <PUBCHEM_IUPAC_INCHI>
InChI=1S/C25H32N8O/c1-25(2)14-16-15-27-24(29-20(16)22-19(25)21(23(34)26-3)30-32(22)5)28-17-6-8-18(9-7-17)33-12-10-31(4)11-13-33/h6-9,15H,10-14H2,1-5H3,(H,26,34)(H,27,28,29)

> <PUBCHEM_IUPAC_INCHIKEY>
RXZMYLDMFYNEIM-UHFFFAOYSA-N

> <PUBCHEM_XLOGP3_AA>
2.8

> <PUBCHEM_EXACT_MASS>
460.26990767

> <PUBCHEM_MOLECULAR_FORMULA>
C25H32N8O

> <PUBCHEM_MOLECULAR_WEIGHT>
460.6

> <PUBCHEM_SMILES>
CC1(CC2=CN=C(N=C2C3=C1C(=NN3C)C(=O)NC)NC4=CC=C(C=C4)N5CCN(CC5)C)C

> <PUBCHEM_OPENEYE_CAN_SMILES>
CC1(CC2=CN=C(N=C2C3=C1C(=NN3C)C(=O)NC)NC4=CC=C(C=C4)N5CCN(CC5)C)C

> <PUBCHEM_OPENEYE_ISO_SMILES>
CC1(CC2=CN=C(N=C2C3=C1C(=NN3C)C(=O)NC)NC4=CC=C(C=C4)N5CCN(CC5)C)C

> <PUBCHEM_CACTVS_TPSA>
91.2

> <PUBCHEM_MONOISOTOPIC_WEIGHT>
460.26990767

> <PUBCHEM_TOTAL_CHARGE>
0

> <PUBCHEM_HEAVY_ATOM_COUNT>
34

> <PUBCHEM_ATOM_DEF_STEREO_COUNT>
0

> <PUBCHEM_ATOM_UDEF_STEREO_COUNT>
0

> <PUBCHEM_BOND_DEF_STEREO_COUNT>
0

> <PUBCHEM_BOND_UDEF_STEREO_COUNT>
0

> <PUBCHEM_ISOTOPIC_ATOM_COUNT>
0

> <PUBCHEM_COMPONENT_COUNT>
1

> <PUBCHEM_CACTVS_TAUTO_COUNT>
-1

> <PUBCHEM_COORDINATE_TYPE>
1
5
255

> <PUBCHEM_BONDANNOTATIONS>
12  13  8
12  18  8
14  17  8
14  19  8
2  13  8
2  3  8
27  30  8
27  31  8
29  32  8
29  33  8
3  18  8
30  32  8
31  33  8
5  17  8
5  26  8
7  19  8
7  26  8

$$$$
