44460577
  -OEChem-03202507202D

 77 84  0     1  0  0  0  0  0999 V2000
    9.1293    2.7373    0.0000 O   0  0  0  0  0  0  0  0  0  0  0  0
    6.5306    1.7793    0.0000 O   0  0  0  0  0  0  0  0  0  0  0  0
    6.1772    3.1069    0.0000 O   0  0  0  0  0  0  0  0  0  0  0  0
    7.3740    4.6674    0.0000 O   0  0  0  0  0  0  0  0  0  0  0  0
    9.3269    4.4352    0.0000 O   0  0  0  0  0  0  0  0  0  0  0  0
    8.0084   -0.3309    0.0000 O   0  0  0  0  0  0  0  0  0  0  0  0
    7.1264   -3.9002    0.0000 O   0  0  0  0  0  0  0  0  0  0  0  0
   11.0030    1.0586    0.0000 O   0  0  0  0  0  0  0  0  0  0  0  0
    4.9529    1.7780    0.0000 O   0  0  0  0  0  0  0  0  0  0  0  0
   10.6230   -3.8001    0.0000 O   0  0  0  0  0  0  0  0  0  0  0  0
    8.9335   -4.8346    0.0000 O   0  0  0  0  0  0  0  0  0  0  0  0
    4.5626   -0.3012    0.0000 O   0  0  0  0  0  0  0  0  0  0  0  0
   10.9357   -2.9912    0.0000 O   0  0  0  0  0  0  0  0  0  0  0  0
    6.2915    0.6660    0.0000 O   0  0  0  0  0  0  0  0  0  0  0  0
    9.7404   -0.3309    0.0000 O   0  0  0  0  0  0  0  0  0  0  0  0
    4.0686   -2.1746    0.0000 O   0  0  0  0  0  0  0  0  0  0  0  0
    5.3563   -3.8760    0.0000 O   0  0  0  0  0  0  0  0  0  0  0  0
   12.9898   -0.2589    0.0000 O   0  0  0  0  0  0  0  0  0  0  0  0
   12.7403   -2.2096    0.0000 O   0  0  0  0  0  0  0  0  0  0  0  0
    2.4976   -0.9916    0.0000 O   0  0  0  0  0  0  0  0  0  0  0  0
    2.7125    0.9632    0.0000 O   0  0  0  0  0  0  0  0  0  0  0  0
    7.5310    2.0632    0.0000 C   0  0  3  0  0  0  0  0  0  0  0  0
    8.5636    1.9404    0.0000 C   0  0  3  0  0  0  0  0  0  0  0  0
    7.1679    2.9705    0.0000 C   0  0  3  0  0  0  0  0  0  0  0  0
    7.7626    3.7460    0.0000 C   0  0  3  0  0  0  0  0  0  0  0  0
    8.7330    3.6306    0.0000 C   0  0  2  0  0  0  0  0  0  0  0  0
    9.4695    1.4298    0.0000 C   0  0  0  0  0  0  0  0  0  0  0  0
   10.1092    0.6100    0.0000 C   0  0  0  0  0  0  0  0  0  0  0  0
   10.3843   -0.3928    0.0000 C   0  0  0  0  0  0  0  0  0  0  0  0
    8.0084   -2.3309    0.0000 C   0  0  0  0  0  0  0  0  0  0  0  0
    7.1423   -1.8309    0.0000 C   0  0  0  0  0  0  0  0  0  0  0  0
   10.2524   -1.4243    0.0000 C   0  0  0  0  0  0  0  0  0  0  0  0
    9.7338   -2.3257    0.0000 C   0  0  0  0  0  0  0  0  0  0  0  0
    8.8744   -1.8309    0.0000 C   0  0  0  0  0  0  0  0  0  0  0  0
    5.7165    1.1323    0.0000 C   0  0  0  0  0  0  0  0  0  0  0  0
    6.2323   -2.3377    0.0000 C   0  0  0  0  0  0  0  0  0  0  0  0
    5.3930   -1.8095    0.0000 C   0  0  0  0  0  0  0  0  0  0  0  0
    5.2139    0.2220    0.0000 C   0  0  0  0  0  0  0  0  0  0  0  0
    5.1002   -0.8117    0.0000 C   0  0  0  0  0  0  0  0  0  0  0  0
    8.0244   -3.3724    0.0000 C   0  0  0  0  0  0  0  0  0  0  0  0
    7.1423   -0.8309    0.0000 C   0  0  0  0  0  0  0  0  0  0  0  0
    9.7473   -3.3173    0.0000 C   0  0  0  0  0  0  0  0  0  0  0  0
   11.2948   -0.0378    0.0000 C   0  0  0  0  0  0  0  0  0  0  0  0
    8.9015   -3.8352    0.0000 C   0  0  0  0  0  0  0  0  0  0  0  0
    5.4186   -0.8181    0.0000 C   0  0  0  0  0  0  0  0  0  0  0  0
   11.0442   -1.9971    0.0000 C   0  0  0  0  0  0  0  0  0  0  0  0
    8.8744   -0.8309    0.0000 C   0  0  0  0  0  0  0  0  0  0  0  0
    6.2841   -0.3340    0.0000 C   0  0  0  0  0  0  0  0  0  0  0  0
    6.2243   -3.3793    0.0000 C   0  0  0  0  0  0  0  0  0  0  0  0
    4.1962   -1.1828    0.0000 C   0  0  0  0  0  0  0  0  0  0  0  0
    4.4121    0.7806    0.0000 C   0  0  0  0  0  0  0  0  0  0  0  0
   12.0650   -0.6393    0.0000 C   0  0  0  0  0  0  0  0  0  0  0  0
   11.9410   -1.6087    0.0000 C   0  0  0  0  0  0  0  0  0  0  0  0
    3.4155   -0.5949    0.0000 C   0  0  0  0  0  0  0  0  0  0  0  0
    3.5223    0.3765    0.0000 C   0  0  0  0  0  0  0  0  0  0  0  0
    7.9083    2.5552    0.0000 H   0  0  0  0  0  0  0  0  0  0  0  0
    9.1686    2.0758    0.0000 H   0  0  0  0  0  0  0  0  0  0  0  0
    6.7861    2.4820    0.0000 H   0  0  0  0  0  0  0  0  0  0  0  0
    7.1477    3.8248    0.0000 H   0  0  0  0  0  0  0  0  0  0  0  0
    8.4869    4.1996    0.0000 H   0  0  0  0  0  0  0  0  0  0  0  0
   10.0669    1.5956    0.0000 H   0  0  0  0  0  0  0  0  0  0  0  0
    9.0650    0.9599    0.0000 H   0  0  0  0  0  0  0  0  0  0  0  0
    5.9434    3.6810    0.0000 H   0  0  0  0  0  0  0  0  0  0  0  0
    7.7483    5.1616    0.0000 H   0  0  0  0  0  0  0  0  0  0  0  0
    9.9430    4.3657    0.0000 H   0  0  0  0  0  0  0  0  0  0  0  0
   11.3847    0.5757    0.0000 H   0  0  0  0  0  0  0  0  0  0  0  0
    4.4685    1.3981    0.0000 H   0  0  0  0  0  0  0  0  0  0  0  0
   10.6352   -4.4200    0.0000 H   0  0  0  0  0  0  0  0  0  0  0  0
    8.4068   -5.1616    0.0000 H   0  0  0  0  0  0  0  0  0  0  0  0
    4.0197   -0.6005    0.0000 H   0  0  0  0  0  0  0  0  0  0  0  0
   11.4358   -3.3576    0.0000 H   0  0  0  0  0  0  0  0  0  0  0  0
    6.8307    0.9720    0.0000 H   0  0  0  0  0  0  0  0  0  0  0  0
    3.4965   -2.4135    0.0000 H   0  0  0  0  0  0  0  0  0  0  0  0
   13.0722    0.3556    0.0000 H   0  0  0  0  0  0  0  0  0  0  0  0
   13.3108   -1.9667    0.0000 H   0  0  0  0  0  0  0  0  0  0  0  0
    2.0000   -0.6217    0.0000 H   0  0  0  0  0  0  0  0  0  0  0  0
    2.7765    1.5799    0.0000 H   0  0  0  0  0  0  0  0  0  0  0  0
  1 23  1  0  0  0  0
  1 26  1  0  0  0  0
  2 22  1  0  0  0  0
  2 35  1  0  0  0  0
  3 24  1  0  0  0  0
  3 63  1  0  0  0  0
  4 25  1  0  0  0  0
  4 64  1  0  0  0  0
 26  5  1  1  0  0  0
  5 65  1  0  0  0  0
  6 41  1  0  0  0  0
  6 47  1  0  0  0  0
  7 40  1  0  0  0  0
  7 49  1  0  0  0  0
  8 28  2  0  0  0  0
  9 35  2  0  0  0  0
 10 42  1  0  0  0  0
 10 68  1  0  0  0  0
 11 44  1  0  0  0  0
 11 69  1  0  0  0  0
 12 45  1  0  0  0  0
 12 70  1  0  0  0  0
 13 46  1  0  0  0  0
 13 71  1  0  0  0  0
 14 48  1  0  0  0  0
 14 72  1  0  0  0  0
 15 47  2  0  0  0  0
 16 50  1  0  0  0  0
 16 73  1  0  0  0  0
 17 49  2  0  0  0  0
 18 52  1  0  0  0  0
 18 74  1  0  0  0  0
 19 53  1  0  0  0  0
 19 75  1  0  0  0  0
 20 54  1  0  0  0  0
 20 76  1  0  0  0  0
 21 55  1  0  0  0  0
 21 77  1  0  0  0  0
 22 23  1  0  0  0  0
 22 24  1  0  0  0  0
 22 56  1  0  0  0  0
 23 27  1  0  0  0  0
 23 57  1  0  0  0  0
 24 25  1  0  0  0  0
 24 58  1  0  0  0  0
 25 26  1  0  0  0  0
 25 59  1  0  0  0  0
 26 60  1  0  0  0  0
 27 28  1  0  0  0  0
 27 61  1  0  0  0  0
 27 62  1  0  0  0  0
 28 29  1  0  0  0  0
 29 32  1  0  0  0  0
 29 43  2  0  0  0  0
 30 31  1  0  0  0  0
 30 34  2  0  0  0  0
 30 40  1  0  0  0  0
 31 36  2  0  0  0  0
 31 41  1  0  0  0  0
 32 33  1  0  0  0  0
 32 46  2  0  0  0  0
 33 34  1  0  0  0  0
 33 42  2  0  0  0  0
 34 47  1  0  0  0  0
 35 38  1  0  0  0  0
 36 37  1  0  0  0  0
 36 49  1  0  0  0  0
 37 39  1  0  0  0  0
 37 45  2  0  0  0  0
 38 39  1  0  0  0  0
 38 51  2  0  0  0  0
 39 50  2  0  0  0  0
 40 44  2  0  0  0  0
 41 48  2  0  0  0  0
 42 44  1  0  0  0  0
 43 52  1  0  0  0  0
 43 66  1  0  0  0  0
 45 48  1  0  0  0  0
 46 53  1  0  0  0  0
 50 54  1  0  0  0  0
 51 55  1  0  0  0  0
 51 67  1  0  0  0  0
 52 53  2  0  0  0  0
 54 55  2  0  0  0  0
M  END
> <PUBCHEM_COMPOUND_CID>
44460577

> <PUBCHEM_COMPOUND_CANONICALIZED>
1

> <PUBCHEM_CACTVS_COMPLEXITY>
1560

> <PUBCHEM_CACTVS_HBOND_ACCEPTOR>
21

> <PUBCHEM_CACTVS_HBOND_DONOR>
13

> <PUBCHEM_CACTVS_ROTATABLE_BOND>
0

> <PUBCHEM_CACTVS_SUBSKEYS>
AAADceB8PgAAAAAAAAAAAAAAAAAAAAAAAAA0aNGCAAAAAAABVAAAGgAACAAADBSwmAMwDoAABgCIAqDSCAACCAAkIAAAiAEGiMgdNzaGNBqCeyOl4BUPuYfK7PzOoAADCAAYQABAAAYQADCAAAAAAAAAAA==

> <PUBCHEM_IUPAC_OPENEYE_NAME>
(13S)-3,4,5,11,12,13,20,21,22,25,26,37,38-tridecahydroxy-9,14,28,35-tetraoxaoctacyclo[28.8.0.02,7.010,15.018,23.024,33.027,32.031,36]octatriaconta-1(38),2,4,6,18,20,22,24,26,30,32,36-dodecaene-8,17,29,34-tetrone

> <PUBCHEM_IUPAC_CAS_NAME>
(13S)-3,4,5,11,12,13,20,21,22,25,26,37,38-tridecahydroxy-9,14,28,35-tetraoxaoctacyclo[28.8.0.02,7.010,15.018,23.024,33.027,32.031,36]octatriaconta-1(38),2,4,6,18,20,22,24,26,30,32,36-dodecaene-8,17,29,34-tetrone

> <PUBCHEM_IUPAC_NAME_MARKUP>
(13<I>S</I>)-3,4,5,11,12,13,20,21,22,25,26,37,38-tridecahydroxy-9,14,28,35-tetraoxaoctacyclo[28.8.0.0<SUP>2,7</SUP>.0<SUP>10,15</SUP>.0<SUP>18,23</SUP>.0<SUP>24,33</SUP>.0<SUP>27,32</SUP>.0<SUP>31,36</SUP>]octatriaconta-1(38),2,4,6,18,20,22,24,26,30,32,36-dodecaene-8,17,29,34-tetrone

> <PUBCHEM_IUPAC_NAME>
(13S)-3,4,5,11,12,13,20,21,22,25,26,37,38-tridecahydroxy-9,14,28,35-tetraoxaoctacyclo[28.8.0.02,7.010,15.018,23.024,33.027,32.031,36]octatriaconta-1(38),2,4,6,18,20,22,24,26,30,32,36-dodecaene-8,17,29,34-tetrone

> <PUBCHEM_IUPAC_SYSTEMATIC_NAME>
(13S)-3,4,5,11,12,13,20,21,22,25,26,37,38-tridecakis(oxidanyl)-9,14,28,35-tetraoxaoctacyclo[28.8.0.02,7.010,15.018,23.024,33.027,32.031,36]octatriaconta-1(38),2,4,6,18,20,22,24,26,30,32,36-dodecaene-8,17,29,34-tetrone

> <PUBCHEM_IUPAC_TRADITIONAL_NAME>
(13S)-3,4,5,11,12,13,20,21,22,25,26,37,38-tridecahydroxy-9,14,28,35-tetraoxaoctacyclo[28.8.0.02,7.010,15.018,23.024,33.027,32.031,36]octatriaconta-1(38),2,4,6,18,20,22,24,26,30,32,36-dodecaene-8,17,29,34-diquinone

> <PUBCHEM_IUPAC_INCHI>
InChI=1S/C34H22O21/c35-6-3-9-28(26(46)27(47)34(51)52-9)53-31(48)5-2-8(37)19(39)21(41)11(5)13-17-15-14-16(32(49)54-30(15)25(45)23(13)43)12(22(42)24(44)29(14)55-33(17)50)10-4(6)1-7(36)18(38)20(10)40/h1-2,9,26-28,34,36-47,51H,3H2/t9?,26?,27?,28?,34-/m0/s1

> <PUBCHEM_IUPAC_INCHIKEY>
PZPLKSSVYSCAPW-BUDOHCFYSA-N

> <PUBCHEM_XLOGP3_AA>
-0.4

> <PUBCHEM_EXACT_MASS>
766.06535771

> <PUBCHEM_MOLECULAR_FORMULA>
C34H22O21

> <PUBCHEM_MOLECULAR_WEIGHT>
766.5

> <PUBCHEM_SMILES>
C1C2C(C(C([C@H](O2)O)O)O)OC(=O)C3=CC(=C(C(=C3C4=C(C(=C5C6=C4C(=O)OC7=C(C(=C(C8=C(C(=C(C=C8C1=O)O)O)O)C(=C67)C(=O)O5)O)O)O)O)O)O)O

> <PUBCHEM_OPENEYE_CAN_SMILES>
C1C2C(C(C(C(O2)O)O)O)OC(=O)C3=CC(=C(C(=C3C4=C(C(=C5C6=C4C(=O)OC7=C(C(=C(C8=C(C(=C(C=C8C1=O)O)O)O)C(=C67)C(=O)O5)O)O)O)O)O)O)O

> <PUBCHEM_OPENEYE_ISO_SMILES>
C1C2C(C(C([C@H](O2)O)O)O)OC(=O)C3=CC(=C(C(=C3C4=C(C(=C5C6=C4C(=O)OC7=C(C(=C(C8=C(C(=C(C=C8C1=O)O)O)O)C(=C67)C(=O)O5)O)O)O)O)O)O)O

> <PUBCHEM_CACTVS_TPSA>
368

> <PUBCHEM_MONOISOTOPIC_WEIGHT>
766.06535771

> <PUBCHEM_TOTAL_CHARGE>
0

> <PUBCHEM_HEAVY_ATOM_COUNT>
55

> <PUBCHEM_ATOM_DEF_STEREO_COUNT>
1

> <PUBCHEM_ATOM_UDEF_STEREO_COUNT>
4

> <PUBCHEM_BOND_DEF_STEREO_COUNT>
0

> <PUBCHEM_BOND_UDEF_STEREO_COUNT>
0

> <PUBCHEM_ISOTOPIC_ATOM_COUNT>
0

> <PUBCHEM_COMPONENT_COUNT>
1

> <PUBCHEM_CACTVS_TAUTO_COUNT>
-1

> <PUBCHEM_COORDINATE_TYPE>
1
5
255

> <PUBCHEM_BONDANNOTATIONS>
22  2  3
23  27  3
29  32  8
29  43  8
24  3  3
30  31  8
30  34  8
30  40  8
31  36  8
31  41  8
32  46  8
33  34  8
33  42  8
34  47  8
36  37  8
36  49  8
37  45  8
38  39  8
38  51  8
39  50  8
25  4  3
40  44  8
41  48  8
42  44  8
43  52  8
45  48  8
46  53  8
26  5  5
50  54  8
51  55  8
52  53  8
54  55  8
6  41  8
6  47  8
7  40  8
7  49  8

$$$$
