17759787
  -OEChem-03202506052D

 45 48  0     0  0  0  0  0  0999 V2000
    7.2458   -3.0173    0.0000 Cl  0  0  0  0  0  0  0  0  0  0  0  0
   12.4583    1.0173    0.0000 Cl  0  0  0  0  0  0  0  0  0  0  0  0
   12.4583    3.0173    0.0000 F   0  0  0  0  0  0  0  0  0  0  0  0
    2.8602   -1.4485    0.0000 O   0  5  0  0  0  0  0  0  0  0  0  0
    5.4641    0.0414    0.0000 N   0  0  0  0  0  0  0  0  0  0  0  0
    8.9942    1.0173    0.0000 N   0  0  0  0  0  0  0  0  0  0  0  0
    8.9942   -1.9827    0.0000 N   0  0  0  0  0  0  0  0  0  0  0  0
    2.8641   -0.4485    0.0000 N   0  3  0  0  0  0  0  0  0  0  0  0
   11.5923    0.5173    0.0000 N   0  0  0  0  0  0  0  0  0  0  0  0
    8.1282   -0.4827    0.0000 C   0  0  0  0  0  0  0  0  0  0  0  0
    8.9942    0.0173    0.0000 C   0  0  0  0  0  0  0  0  0  0  0  0
    6.3282   -0.4619    0.0000 C   0  0  0  0  0  0  0  0  0  0  0  0
    8.1282   -1.4827    0.0000 C   0  0  0  0  0  0  0  0  0  0  0  0
    7.2342    0.0520    0.0000 C   0  0  0  0  0  0  0  0  0  0  0  0
    4.5961   -0.4552    0.0000 C   0  0  0  0  0  0  0  0  0  0  0  0
    6.3282   -1.5035    0.0000 C   0  0  0  0  0  0  0  0  0  0  0  0
    7.2342   -2.0174    0.0000 C   0  0  0  0  0  0  0  0  0  0  0  0
    9.8602   -0.4827    0.0000 C   0  0  0  0  0  0  0  0  0  0  0  0
    3.7320    0.0481    0.0000 C   0  0  0  0  0  0  0  0  0  0  0  0
    9.8602    1.5173    0.0000 C   0  0  0  0  0  0  0  0  0  0  0  0
    9.8602   -1.4827    0.0000 C   0  0  0  0  0  0  0  0  0  0  0  0
    3.7359    1.0481    0.0000 C   0  0  0  0  0  0  0  0  0  0  0  0
   10.7263    1.0173    0.0000 C   0  0  0  0  0  0  0  0  0  0  0  0
    9.8602    2.5173    0.0000 C   0  0  0  0  0  0  0  0  0  0  0  0
    2.0000    0.0548    0.0000 C   0  0  0  0  0  0  0  0  0  0  0  0
    2.8718    1.5514    0.0000 C   0  0  0  0  0  0  0  0  0  0  0  0
    2.0038    1.0548    0.0000 C   0  0  0  0  0  0  0  0  0  0  0  0
   11.5923    1.5173    0.0000 C   0  0  0  0  0  0  0  0  0  0  0  0
   10.7263    3.0173    0.0000 C   0  0  0  0  0  0  0  0  0  0  0  0
   10.7263    0.0173    0.0000 C   0  0  0  0  0  0  0  0  0  0  0  0
   11.5923    2.5173    0.0000 C   0  0  0  0  0  0  0  0  0  0  0  0
    7.2414    0.6719    0.0000 H   0  0  0  0  0  0  0  0  0  0  0  0
    4.1958   -0.9286    0.0000 H   0  0  0  0  0  0  0  0  0  0  0  0
    4.9928   -0.9317    0.0000 H   0  0  0  0  0  0  0  0  0  0  0  0
    5.4665    0.6614    0.0000 H   0  0  0  0  0  0  0  0  0  0  0  0
    5.7924   -1.8156    0.0000 H   0  0  0  0  0  0  0  0  0  0  0  0
    8.4573    1.3273    0.0000 H   0  0  0  0  0  0  0  0  0  0  0  0
   10.3972   -1.7927    0.0000 H   0  0  0  0  0  0  0  0  0  0  0  0
    4.2740    1.3560    0.0000 H   0  0  0  0  0  0  0  0  0  0  0  0
   10.7263    0.3973    0.0000 H   0  0  0  0  0  0  0  0  0  0  0  0
    9.3233    2.8273    0.0000 H   0  0  0  0  0  0  0  0  0  0  0  0
    1.4619   -0.2531    0.0000 H   0  0  0  0  0  0  0  0  0  0  0  0
    2.8742    2.1714    0.0000 H   0  0  0  0  0  0  0  0  0  0  0  0
    1.4681    1.3669    0.0000 H   0  0  0  0  0  0  0  0  0  0  0  0
   10.7263    3.6373    0.0000 H   0  0  0  0  0  0  0  0  0  0  0  0
  1 17  1  0  0  0  0
  2 28  1  0  0  0  0
  3 31  1  0  0  0  0
  4  8  1  0  0  0  0
  5 12  1  0  0  0  0
  5 15  1  0  0  0  0
  5 35  1  0  0  0  0
  6 11  1  0  0  0  0
  6 20  1  0  0  0  0
  6 37  1  0  0  0  0
  7 13  2  0  0  0  0
  7 21  1  0  0  0  0
  8 19  1  0  0  0  0
  8 25  2  0  0  0  0
  9 30  3  0  0  0  0
 10 11  2  0  0  0  0
 10 13  1  0  0  0  0
 10 14  1  0  0  0  0
 11 18  1  0  0  0  0
 12 14  2  0  0  0  0
 12 16  1  0  0  0  0
 13 17  1  0  0  0  0
 14 32  1  0  0  0  0
 15 19  1  0  0  0  0
 15 33  1  0  0  0  0
 15 34  1  0  0  0  0
 16 17  2  0  0  0  0
 16 36  1  0  0  0  0
 18 21  2  0  0  0  0
 18 30  1  0  0  0  0
 19 22  2  0  0  0  0
 20 23  2  0  0  0  0
 20 24  1  0  0  0  0
 21 38  1  0  0  0  0
 22 26  1  0  0  0  0
 22 39  1  0  0  0  0
 23 28  1  0  0  0  0
 23 40  1  0  0  0  0
 24 29  2  0  0  0  0
 24 41  1  0  0  0  0
 25 27  1  0  0  0  0
 25 42  1  0  0  0  0
 26 27  2  0  0  0  0
 26 43  1  0  0  0  0
 27 44  1  0  0  0  0
 28 31  2  0  0  0  0
 29 31  1  0  0  0  0
 29 45  1  0  0  0  0
M  CHG  2   4  -1   8   1
M  END
> <PUBCHEM_COMPOUND_CID>
17759787

> <PUBCHEM_COMPOUND_CANONICALIZED>
1

> <PUBCHEM_CACTVS_COMPLEXITY>
651

> <PUBCHEM_CACTVS_HBOND_ACCEPTOR>
6

> <PUBCHEM_CACTVS_HBOND_DONOR>
2

> <PUBCHEM_CACTVS_ROTATABLE_BOND>
5

> <PUBCHEM_CACTVS_SUBSKEYS>
AAADccB7oQAGAAAAAAAAAAAAAAAAAAAAAAA8eIEAAAAAAACx/AAAHQIUAAAADArBHiw8wPLYEACwBzRnRACigCAxByAo2KA4ZpoI4OLB09HUJAhgkADIyA8QgMAOAACAYAICABAAAQDABAQAIAAAAAAAAA==

> <PUBCHEM_IUPAC_OPENEYE_NAME>
8-chloro-4-(3-chloro-4-fluoro-anilino)-6-[(1-oxidopyridin-1-ium-2-yl)methylamino]quinoline-3-carbonitrile

> <PUBCHEM_IUPAC_CAS_NAME>
8-chloro-4-(3-chloro-4-fluoroanilino)-6-[(1-oxido-2-pyridin-1-iumyl)methylamino]-3-quinolinecarbonitrile

> <PUBCHEM_IUPAC_NAME_MARKUP>
8-chloro-4-(3-chloro-4-fluoroanilino)-6-[(1-oxidopyridin-1-ium-2-yl)methylamino]quinoline-3-carbonitrile

> <PUBCHEM_IUPAC_NAME>
8-chloro-4-(3-chloro-4-fluoroanilino)-6-[(1-oxidopyridin-1-ium-2-yl)methylamino]quinoline-3-carbonitrile

> <PUBCHEM_IUPAC_SYSTEMATIC_NAME>
8-chloranyl-4-[(3-chloranyl-4-fluoranyl-phenyl)amino]-6-[(1-oxidanidylpyridin-1-ium-2-yl)methylamino]quinoline-3-carbonitrile

> <PUBCHEM_IUPAC_TRADITIONAL_NAME>
8-chloro-4-(3-chloro-4-fluoro-anilino)-6-[(1-oxidopyridin-1-ium-2-yl)methylamino]quinoline-3-carbonitrile

> <PUBCHEM_IUPAC_INCHI>
InChI=1S/C22H14Cl2FN5O/c23-18-8-14(4-5-20(18)25)29-21-13(10-26)11-28-22-17(21)7-15(9-19(22)24)27-12-16-3-1-2-6-30(16)31/h1-9,11,27H,12H2,(H,28,29)

> <PUBCHEM_IUPAC_INCHIKEY>
ORVPEVIDEJOHIY-UHFFFAOYSA-N

> <PUBCHEM_XLOGP3_AA>
4.8

> <PUBCHEM_EXACT_MASS>
453.0559436

> <PUBCHEM_MOLECULAR_FORMULA>
C22H14Cl2FN5O

> <PUBCHEM_MOLECULAR_WEIGHT>
454.3

> <PUBCHEM_SMILES>
C1=CC=[N+](C(=C1)CNC2=CC3=C(C(=CN=C3C(=C2)Cl)C#N)NC4=CC(=C(C=C4)F)Cl)[O-]

> <PUBCHEM_OPENEYE_CAN_SMILES>
C1=CC=[N+](C(=C1)CNC2=CC3=C(C(=CN=C3C(=C2)Cl)C#N)NC4=CC(=C(C=C4)F)Cl)[O-]

> <PUBCHEM_OPENEYE_ISO_SMILES>
C1=CC=[N+](C(=C1)CNC2=CC3=C(C(=CN=C3C(=C2)Cl)C#N)NC4=CC(=C(C=C4)F)Cl)[O-]

> <PUBCHEM_CACTVS_TPSA>
86.2

> <PUBCHEM_MONOISOTOPIC_WEIGHT>
453.0559436

> <PUBCHEM_TOTAL_CHARGE>
0

> <PUBCHEM_HEAVY_ATOM_COUNT>
31

> <PUBCHEM_ATOM_DEF_STEREO_COUNT>
0

> <PUBCHEM_ATOM_UDEF_STEREO_COUNT>
0

> <PUBCHEM_BOND_DEF_STEREO_COUNT>
0

> <PUBCHEM_BOND_UDEF_STEREO_COUNT>
0

> <PUBCHEM_ISOTOPIC_ATOM_COUNT>
0

> <PUBCHEM_COMPONENT_COUNT>
1

> <PUBCHEM_CACTVS_TAUTO_COUNT>
-1

> <PUBCHEM_COORDINATE_TYPE>
1
5
255

> <PUBCHEM_BONDANNOTATIONS>
10  11  8
10  13  8
10  14  8
11  18  8
12  14  8
12  16  8
13  17  8
16  17  8
18  21  8
19  22  8
20  23  8
20  24  8
22  26  8
23  28  8
24  29  8
25  27  8
26  27  8
28  31  8
29  31  8
7  13  8
7  21  8
8  19  8
8  25  8

$$$$
