49830815
  -OEChem-03202502582D

 73 77  0     0  0  0  0  0  0999 V2000
    7.2764   -2.0835    0.0000 S   0  0  0  0  0  0  0  0  0  0  0  0
    9.8547    1.8395    0.0000 O   0  0  0  0  0  0  0  0  0  0  0  0
    6.8726    3.8662    0.0000 O   0  0  0  0  0  0  0  0  0  0  0  0
    5.4641   -5.2787    0.0000 O   0  0  0  0  0  0  0  0  0  0  0  0
    7.5782    5.8276    0.0000 N   0  0  0  0  0  0  0  0  0  0  0  0
    8.5190    3.3281    0.0000 N   0  0  0  0  0  0  0  0  0  0  0  0
    4.5981   -0.7787    0.0000 N   0  0  0  0  0  0  0  0  0  0  0  0
    2.8660   -7.7787    0.0000 N   0  0  0  0  0  0  0  0  0  0  0  0
    5.4641    0.7213    0.0000 N   0  0  0  0  0  0  0  0  0  0  0  0
    3.7320   -5.2787    0.0000 N   0  0  0  0  0  0  0  0  0  0  0  0
    8.1618    6.6324    0.0000 C   0  0  0  0  0  0  0  0  0  0  0  0
    8.1618    5.0229    0.0000 C   0  0  0  0  0  0  0  0  0  0  0  0
    9.1123    6.3217    0.0000 C   0  0  0  0  0  0  0  0  0  0  0  0
    7.2764   -0.4740    0.0000 C   0  0  0  0  0  0  0  0  0  0  0  0
    6.3301   -0.7787    0.0000 C   0  0  0  0  0  0  0  0  0  0  0  0
    9.1080    5.3276    0.0000 C   0  0  0  0  0  0  0  0  0  0  0  0
    7.5870    0.4765    0.0000 C   0  0  0  0  0  0  0  0  0  0  0  0
    6.3301   -1.7787    0.0000 C   0  0  0  0  0  0  0  0  0  0  0  0
    8.2083    2.3776    0.0000 C   0  0  0  0  0  0  0  0  0  0  0  0
    7.8512    4.0724    0.0000 C   0  0  0  0  0  0  0  0  0  0  0  0
    7.9556    7.6109    0.0000 C   0  0  0  0  0  0  0  0  0  0  0  0
    8.5655    0.6827    0.0000 C   0  0  0  0  0  0  0  0  0  0  0  0
    6.5782    5.8276    0.0000 C   0  0  0  0  0  0  0  0  0  0  0  0
    8.8762    1.6333    0.0000 C   0  0  0  0  0  0  0  0  0  0  0  0
    5.4641   -2.2787    0.0000 C   0  0  0  0  0  0  0  0  0  0  0  0
    9.8566    6.9896    0.0000 C   0  0  0  0  0  0  0  0  0  0  0  0
    7.8600   -1.2787    0.0000 C   0  0  0  0  0  0  0  0  0  0  0  0
    6.9192    1.2208    0.0000 C   0  0  0  0  0  0  0  0  0  0  0  0
    5.4641   -0.2787    0.0000 C   0  0  0  0  0  0  0  0  0  0  0  0
    7.2298    2.1714    0.0000 C   0  0  0  0  0  0  0  0  0  0  0  0
    8.6999    8.2787    0.0000 C   0  0  0  0  0  0  0  0  0  0  0  0
    9.6504    7.9681    0.0000 C   0  0  0  0  0  0  0  0  0  0  0  0
    4.5981   -1.7787    0.0000 C   0  0  0  0  0  0  0  0  0  0  0  0
    5.4641   -3.2787    0.0000 C   0  0  0  0  0  0  0  0  0  0  0  0
    2.8660   -6.7787    0.0000 C   0  0  0  0  0  0  0  0  0  0  0  0
    3.7320   -6.2787    0.0000 C   0  0  0  0  0  0  0  0  0  0  0  0
    4.5981   -3.7787    0.0000 C   0  0  0  0  0  0  0  0  0  0  0  0
    4.5981   -4.7787    0.0000 C   0  0  0  0  0  0  0  0  0  0  0  0
    2.0000   -8.2787    0.0000 C   0  0  0  0  0  0  0  0  0  0  0  0
    3.7320   -8.2787    0.0000 C   0  0  0  0  0  0  0  0  0  0  0  0
   10.5225    1.0952    0.0000 C   0  0  0  0  0  0  0  0  0  0  0  0
    9.6084    4.9615    0.0000 H   0  0  0  0  0  0  0  0  0  0  0  0
    7.3663    7.8035    0.0000 H   0  0  0  0  0  0  0  0  0  0  0  0
    8.9796    0.2213    0.0000 H   0  0  0  0  0  0  0  0  0  0  0  0
    6.5782    6.4476    0.0000 H   0  0  0  0  0  0  0  0  0  0  0  0
    5.9582    5.8276    0.0000 H   0  0  0  0  0  0  0  0  0  0  0  0
    6.5782    5.2076    0.0000 H   0  0  0  0  0  0  0  0  0  0  0  0
    8.4800   -1.2787    0.0000 H   0  0  0  0  0  0  0  0  0  0  0  0
   10.4460    6.7970    0.0000 H   0  0  0  0  0  0  0  0  0  0  0  0
    6.3125    1.0930    0.0000 H   0  0  0  0  0  0  0  0  0  0  0  0
    9.1257    3.4559    0.0000 H   0  0  0  0  0  0  0  0  0  0  0  0
    6.8158    2.6328    0.0000 H   0  0  0  0  0  0  0  0  0  0  0  0
    8.5720    8.8854    0.0000 H   0  0  0  0  0  0  0  0  0  0  0  0
   10.1119    8.3821    0.0000 H   0  0  0  0  0  0  0  0  0  0  0  0
    4.0611   -2.0887    0.0000 H   0  0  0  0  0  0  0  0  0  0  0  0
    6.0010   -3.5887    0.0000 H   0  0  0  0  0  0  0  0  0  0  0  0
    2.6540   -6.1961    0.0000 H   0  0  0  0  0  0  0  0  0  0  0  0
    2.2554   -6.8864    0.0000 H   0  0  0  0  0  0  0  0  0  0  0  0
    3.9441   -6.8613    0.0000 H   0  0  0  0  0  0  0  0  0  0  0  0
    4.3426   -6.1711    0.0000 H   0  0  0  0  0  0  0  0  0  0  0  0
    4.9272    1.0313    0.0000 H   0  0  0  0  0  0  0  0  0  0  0  0
    6.0010    1.0313    0.0000 H   0  0  0  0  0  0  0  0  0  0  0  0
    4.0611   -3.4687    0.0000 H   0  0  0  0  0  0  0  0  0  0  0  0
    3.1951   -4.9687    0.0000 H   0  0  0  0  0  0  0  0  0  0  0  0
    1.6900   -7.7418    0.0000 H   0  0  0  0  0  0  0  0  0  0  0  0
    1.4631   -8.5887    0.0000 H   0  0  0  0  0  0  0  0  0  0  0  0
    2.3100   -8.8157    0.0000 H   0  0  0  0  0  0  0  0  0  0  0  0
    3.4220   -8.8157    0.0000 H   0  0  0  0  0  0  0  0  0  0  0  0
    4.2690   -8.5887    0.0000 H   0  0  0  0  0  0  0  0  0  0  0  0
    4.0420   -7.7418    0.0000 H   0  0  0  0  0  0  0  0  0  0  0  0
   10.0611    0.6811    0.0000 H   0  0  0  0  0  0  0  0  0  0  0  0
   10.9366    0.6337    0.0000 H   0  0  0  0  0  0  0  0  0  0  0  0
   10.9840    1.5092    0.0000 H   0  0  0  0  0  0  0  0  0  0  0  0
  1 18  1  0  0  0  0
  1 27  1  0  0  0  0
  2 24  1  0  0  0  0
  2 41  1  0  0  0  0
  3 20  2  0  0  0  0
  4 38  2  0  0  0  0
  5 11  1  0  0  0  0
  5 12  1  0  0  0  0
  5 23  1  0  0  0  0
  6 19  1  0  0  0  0
  6 20  1  0  0  0  0
  6 51  1  0  0  0  0
  7 29  2  0  0  0  0
  7 33  1  0  0  0  0
  8 35  1  0  0  0  0
  8 39  1  0  0  0  0
  8 40  1  0  0  0  0
  9 29  1  0  0  0  0
  9 61  1  0  0  0  0
  9 62  1  0  0  0  0
 10 36  1  0  0  0  0
 10 38  1  0  0  0  0
 10 64  1  0  0  0  0
 11 13  1  0  0  0  0
 11 21  2  0  0  0  0
 12 16  2  0  0  0  0
 12 20  1  0  0  0  0
 13 16  1  0  0  0  0
 13 26  2  0  0  0  0
 14 15  1  0  0  0  0
 14 17  1  0  0  0  0
 14 27  2  0  0  0  0
 15 18  2  0  0  0  0
 15 29  1  0  0  0  0
 16 42  1  0  0  0  0
 17 22  2  0  0  0  0
 17 28  1  0  0  0  0
 18 25  1  0  0  0  0
 19 24  2  0  0  0  0
 19 30  1  0  0  0  0
 21 31  1  0  0  0  0
 21 43  1  0  0  0  0
 22 24  1  0  0  0  0
 22 44  1  0  0  0  0
 23 45  1  0  0  0  0
 23 46  1  0  0  0  0
 23 47  1  0  0  0  0
 25 33  2  0  0  0  0
 25 34  1  0  0  0  0
 26 32  1  0  0  0  0
 26 49  1  0  0  0  0
 27 48  1  0  0  0  0
 28 30  2  0  0  0  0
 28 50  1  0  0  0  0
 30 52  1  0  0  0  0
 31 32  2  0  0  0  0
 31 53  1  0  0  0  0
 32 54  1  0  0  0  0
 33 55  1  0  0  0  0
 34 37  2  3  0  0  0
 34 56  1  0  0  0  0
 35 36  1  0  0  0  0
 35 57  1  0  0  0  0
 35 58  1  0  0  0  0
 36 59  1  0  0  0  0
 36 60  1  0  0  0  0
 37 38  1  0  0  0  0
 37 63  1  0  0  0  0
 39 65  1  0  0  0  0
 39 66  1  0  0  0  0
 39 67  1  0  0  0  0
 40 68  1  0  0  0  0
 40 69  1  0  0  0  0
 40 70  1  0  0  0  0
 41 71  1  0  0  0  0
 41 72  1  0  0  0  0
 41 73  1  0  0  0  0
M  END
> <PUBCHEM_COMPOUND_CID>
49830815

> <PUBCHEM_COMPOUND_CANONICALIZED>
1

> <PUBCHEM_CACTVS_COMPLEXITY>
936

> <PUBCHEM_CACTVS_HBOND_ACCEPTOR>
7

> <PUBCHEM_CACTVS_HBOND_DONOR>
3

> <PUBCHEM_CACTVS_ROTATABLE_BOND>
9

> <PUBCHEM_CACTVS_SUBSKEYS>
AAADcfB7sABAAAAAAAAAAAAAAAAAAWJAAAA8YIAAAAAAAFgB/gAAHgQQAAAADAzF3ga/9/PMFAisAzd3dACDiKk3KjAI2LG/bNiOZvLktbuVMSxk1hP46aeYyfCeiAABAAACEAAQAAIAAAQgAAAAAAAAAA==

> <PUBCHEM_IUPAC_OPENEYE_NAME>
N-[4-[4-amino-7-[3-[2-(dimethylamino)ethylamino]-3-oxo-prop-1-enyl]thieno[3,2-c]pyridin-3-yl]-2-methoxy-phenyl]-1-methyl-indole-2-carboxamide

> <PUBCHEM_IUPAC_CAS_NAME>
N-[4-[4-amino-7-[3-[2-(dimethylamino)ethylamino]-3-oxoprop-1-enyl]-3-thieno[3,2-c]pyridinyl]-2-methoxyphenyl]-1-methyl-2-indolecarboxamide

> <PUBCHEM_IUPAC_NAME_MARKUP>
<I>N</I>-[4-[4-amino-7-[3-[2-(dimethylamino)ethylamino]-3-oxoprop-1-enyl]thieno[3,2-c]pyridin-3-yl]-2-methoxyphenyl]-1-methylindole-2-carboxamide

> <PUBCHEM_IUPAC_NAME>
N-[4-[4-amino-7-[3-[2-(dimethylamino)ethylamino]-3-oxoprop-1-enyl]thieno[3,2-c]pyridin-3-yl]-2-methoxyphenyl]-1-methylindole-2-carboxamide

> <PUBCHEM_IUPAC_SYSTEMATIC_NAME>
N-[4-[4-azanyl-7-[3-[2-(dimethylamino)ethylamino]-3-oxidanylidene-prop-1-enyl]thieno[3,2-c]pyridin-3-yl]-2-methoxy-phenyl]-1-methyl-indole-2-carboxamide

> <PUBCHEM_IUPAC_TRADITIONAL_NAME>
N-[4-[4-amino-7-[3-[2-(dimethylamino)ethylamino]-3-keto-prop-1-enyl]thieno[3,2-c]pyridin-3-yl]-2-methoxy-phenyl]-1-methyl-indole-2-carboxamide

> <PUBCHEM_IUPAC_INCHI>
InChI=1S/C31H32N6O3S/c1-36(2)14-13-33-27(38)12-10-21-17-34-30(32)28-22(18-41-29(21)28)19-9-11-23(26(16-19)40-4)35-31(39)25-15-20-7-5-6-8-24(20)37(25)3/h5-12,15-18H,13-14H2,1-4H3,(H2,32,34)(H,33,38)(H,35,39)

> <PUBCHEM_IUPAC_INCHIKEY>
UQNNJYLAPYGZBD-UHFFFAOYSA-N

> <PUBCHEM_XLOGP3_AA>
4.1

> <PUBCHEM_EXACT_MASS>
568.22566008

> <PUBCHEM_MOLECULAR_FORMULA>
C31H32N6O3S

> <PUBCHEM_MOLECULAR_WEIGHT>
568.7

> <PUBCHEM_SMILES>
CN1C2=CC=CC=C2C=C1C(=O)NC3=C(C=C(C=C3)C4=CSC5=C4C(=NC=C5C=CC(=O)NCCN(C)C)N)OC

> <PUBCHEM_OPENEYE_CAN_SMILES>
CN1C2=CC=CC=C2C=C1C(=O)NC3=C(C=C(C=C3)C4=CSC5=C4C(=NC=C5C=CC(=O)NCCN(C)C)N)OC

> <PUBCHEM_OPENEYE_ISO_SMILES>
CN1C2=CC=CC=C2C=C1C(=O)NC3=C(C=C(C=C3)C4=CSC5=C4C(=NC=C5C=CC(=O)NCCN(C)C)N)OC

> <PUBCHEM_CACTVS_TPSA>
143

> <PUBCHEM_MONOISOTOPIC_WEIGHT>
568.22566008

> <PUBCHEM_TOTAL_CHARGE>
0

> <PUBCHEM_HEAVY_ATOM_COUNT>
41

> <PUBCHEM_ATOM_DEF_STEREO_COUNT>
0

> <PUBCHEM_ATOM_UDEF_STEREO_COUNT>
0

> <PUBCHEM_BOND_DEF_STEREO_COUNT>
0

> <PUBCHEM_BOND_UDEF_STEREO_COUNT>
1

> <PUBCHEM_ISOTOPIC_ATOM_COUNT>
0

> <PUBCHEM_COMPONENT_COUNT>
1

> <PUBCHEM_CACTVS_TAUTO_COUNT>
-1

> <PUBCHEM_COORDINATE_TYPE>
1
5
255

> <PUBCHEM_BONDANNOTATIONS>
1  18  8
1  27  8
11  13  8
11  21  8
12  16  8
13  16  8
13  26  8
14  15  8
14  27  8
15  18  8
15  29  8
17  22  8
17  28  8
18  25  8
19  24  8
19  30  8
21  31  8
22  24  8
25  33  8
26  32  8
28  30  8
31  32  8
34  37  1
5  11  8
5  12  8
7  29  8
7  33  8

$$$$
