49830659
  -OEChem-03202500502D

 60 63  0     0  0  0  0  0  0999 V2000
    8.8556   -2.5766    0.0000 O   0  0  0  0  0  0  0  0  0  0  0  0
    5.5717    1.1381    0.0000 O   0  0  0  0  0  0  0  0  0  0  0  0
    8.1698    0.6381    0.0000 O   0  0  0  0  0  0  0  0  0  0  0  0
   11.2929   -3.6059    0.0000 O   0  0  0  0  0  0  0  0  0  0  0  0
   10.7577   -1.9586    0.0000 O   0  0  0  0  0  0  0  0  0  0  0  0
    5.4672   -1.8564    0.0000 N   0  0  0  0  0  0  0  0  0  0  0  0
    4.4890   -2.0643    0.0000 N   0  0  0  0  0  0  0  0  0  0  0  0
    6.4378   -0.3619    0.0000 N   0  0  0  0  0  0  0  0  0  0  0  0
    2.9945   -1.0937    0.0000 C   0  0  0  0  0  0  0  0  0  0  0  0
    3.9890   -1.1983    0.0000 C   0  0  0  0  0  0  0  0  0  0  0  0
    2.0000   -0.9892    0.0000 C   0  0  0  0  0  0  0  0  0  0  0  0
    2.8900   -2.0883    0.0000 C   0  0  0  0  0  0  0  0  0  0  0  0
    3.0990   -0.0992    0.0000 C   0  0  0  0  0  0  0  0  0  0  0  0
    4.6582   -0.4551    0.0000 C   0  0  0  0  0  0  0  0  0  0  0  0
    5.5717   -0.8619    0.0000 C   0  0  0  0  0  0  0  0  0  0  0  0
    6.2103   -2.5255    0.0000 C   0  0  0  0  0  0  0  0  0  0  0  0
    7.1614   -2.2165    0.0000 C   0  0  0  0  0  0  0  0  0  0  0  0
    6.0024   -3.5037    0.0000 C   0  0  0  0  0  0  0  0  0  0  0  0
    6.4378    0.6381    0.0000 C   0  0  0  0  0  0  0  0  0  0  0  0
    7.9045   -2.8856    0.0000 C   0  0  0  0  0  0  0  0  0  0  0  0
    7.3038    2.1381    0.0000 C   0  0  0  0  0  0  0  0  0  0  0  0
    8.1698    2.6381    0.0000 C   0  0  0  0  0  0  0  0  0  0  0  0
    7.3038    1.1381    0.0000 C   0  0  0  0  0  0  0  0  0  0  0  0
    6.7456   -4.1728    0.0000 C   0  0  0  0  0  0  0  0  0  0  0  0
    8.1698    3.6381    0.0000 C   0  0  0  0  0  0  0  0  0  0  0  0
    7.6966   -3.8638    0.0000 C   0  0  0  0  0  0  0  0  0  0  0  0
    6.4378    2.6381    0.0000 C   0  0  0  0  0  0  0  0  0  0  0  0
    9.0637    2.1035    0.0000 C   0  0  0  0  0  0  0  0  0  0  0  0
    7.3038    4.1381    0.0000 C   0  0  0  0  0  0  0  0  0  0  0  0
    6.4378    3.6381    0.0000 C   0  0  0  0  0  0  0  0  0  0  0  0
    9.0637    4.1728    0.0000 C   0  0  0  0  0  0  0  0  0  0  0  0
    9.9698    2.6173    0.0000 C   0  0  0  0  0  0  0  0  0  0  0  0
    9.9698    3.6590    0.0000 C   0  0  0  0  0  0  0  0  0  0  0  0
    9.5987   -3.2457    0.0000 C   0  0  0  0  0  0  0  0  0  0  0  0
   10.5498   -2.9367    0.0000 C   0  0  0  0  0  0  0  0  0  0  0  0
    2.0648   -0.3726    0.0000 H   0  0  0  0  0  0  0  0  0  0  0  0
    1.3834   -0.9244    0.0000 H   0  0  0  0  0  0  0  0  0  0  0  0
    1.9352   -1.6058    0.0000 H   0  0  0  0  0  0  0  0  0  0  0  0
    2.2734   -2.0235    0.0000 H   0  0  0  0  0  0  0  0  0  0  0  0
    2.8252   -2.7049    0.0000 H   0  0  0  0  0  0  0  0  0  0  0  0
    3.5066   -2.1531    0.0000 H   0  0  0  0  0  0  0  0  0  0  0  0
    3.7156   -0.1640    0.0000 H   0  0  0  0  0  0  0  0  0  0  0  0
    3.1639    0.5174    0.0000 H   0  0  0  0  0  0  0  0  0  0  0  0
    2.4824   -0.0344    0.0000 H   0  0  0  0  0  0  0  0  0  0  0  0
    4.5293    0.1513    0.0000 H   0  0  0  0  0  0  0  0  0  0  0  0
    6.9747   -0.6719    0.0000 H   0  0  0  0  0  0  0  0  0  0  0  0
    7.2903   -1.6100    0.0000 H   0  0  0  0  0  0  0  0  0  0  0  0
    5.4128   -3.6953    0.0000 H   0  0  0  0  0  0  0  0  0  0  0  0
    6.6167   -4.7792    0.0000 H   0  0  0  0  0  0  0  0  0  0  0  0
    8.1574   -4.2786    0.0000 H   0  0  0  0  0  0  0  0  0  0  0  0
    5.9008    2.3281    0.0000 H   0  0  0  0  0  0  0  0  0  0  0  0
    9.0566    1.4835    0.0000 H   0  0  0  0  0  0  0  0  0  0  0  0
    7.3038    4.7581    0.0000 H   0  0  0  0  0  0  0  0  0  0  0  0
    5.9008    3.9481    0.0000 H   0  0  0  0  0  0  0  0  0  0  0  0
    9.0566    4.7928    0.0000 H   0  0  0  0  0  0  0  0  0  0  0  0
   10.5055    2.3052    0.0000 H   0  0  0  0  0  0  0  0  0  0  0  0
   10.5055    3.9710    0.0000 H   0  0  0  0  0  0  0  0  0  0  0  0
    9.1102   -3.6274    0.0000 H   0  0  0  0  0  0  0  0  0  0  0  0
    9.8898   -3.7932    0.0000 H   0  0  0  0  0  0  0  0  0  0  0  0
   11.8826   -3.4143    0.0000 H   0  0  0  0  0  0  0  0  0  0  0  0
  1 20  1  0  0  0  0
  1 34  1  0  0  0  0
  2 19  2  0  0  0  0
  3 23  2  0  0  0  0
  4 35  1  0  0  0  0
  4 60  1  0  0  0  0
  5 35  2  0  0  0  0
  6  7  1  0  0  0  0
  6 15  1  0  0  0  0
  6 16  1  0  0  0  0
  7 10  2  0  0  0  0
  8 15  1  0  0  0  0
  8 19  1  0  0  0  0
  8 46  1  0  0  0  0
  9 10  1  0  0  0  0
  9 11  1  0  0  0  0
  9 12  1  0  0  0  0
  9 13  1  0  0  0  0
 10 14  1  0  0  0  0
 11 36  1  0  0  0  0
 11 37  1  0  0  0  0
 11 38  1  0  0  0  0
 12 39  1  0  0  0  0
 12 40  1  0  0  0  0
 12 41  1  0  0  0  0
 13 42  1  0  0  0  0
 13 43  1  0  0  0  0
 13 44  1  0  0  0  0
 14 15  2  0  0  0  0
 14 45  1  0  0  0  0
 16 17  2  0  0  0  0
 16 18  1  0  0  0  0
 17 20  1  0  0  0  0
 17 47  1  0  0  0  0
 18 24  2  0  0  0  0
 18 48  1  0  0  0  0
 19 23  1  0  0  0  0
 20 26  2  0  0  0  0
 21 22  1  0  0  0  0
 21 23  1  0  0  0  0
 21 27  2  0  0  0  0
 22 25  1  0  0  0  0
 22 28  2  0  0  0  0
 24 26  1  0  0  0  0
 24 49  1  0  0  0  0
 25 29  1  0  0  0  0
 25 31  2  0  0  0  0
 26 50  1  0  0  0  0
 27 30  1  0  0  0  0
 27 51  1  0  0  0  0
 28 32  1  0  0  0  0
 28 52  1  0  0  0  0
 29 30  2  0  0  0  0
 29 53  1  0  0  0  0
 30 54  1  0  0  0  0
 31 33  1  0  0  0  0
 31 55  1  0  0  0  0
 32 33  2  0  0  0  0
 32 56  1  0  0  0  0
 33 57  1  0  0  0  0
 34 35  1  0  0  0  0
 34 58  1  0  0  0  0
 34 59  1  0  0  0  0
M  END
> <PUBCHEM_COMPOUND_CID>
49830659

> <PUBCHEM_COMPOUND_CANONICALIZED>
1

> <PUBCHEM_CACTVS_COMPLEXITY>
781

> <PUBCHEM_CACTVS_HBOND_ACCEPTOR>
6

> <PUBCHEM_CACTVS_HBOND_DONOR>
2

> <PUBCHEM_CACTVS_ROTATABLE_BOND>
8

> <PUBCHEM_CACTVS_SUBSKEYS>
AAADceB7OAAAAAAAAAAAAAAAAAAAAWAAAAAwYMAAAAAAAADB1AAAHgAYCAAADgyhngIz/tLIBgCqA6fyfAKSDCMlIgAdmCH2bNiNJnLE/f+GvSj+3RvL6aeY2MOPgAACAgAQAAAAAAQEACAAAAAAAAAAAA==

> <PUBCHEM_IUPAC_OPENEYE_NAME>
2-[3-[3-tert-butyl-5-[[2-(1-naphthyl)-2-oxo-acetyl]amino]pyrazol-1-yl]phenoxy]acetic acid

> <PUBCHEM_IUPAC_CAS_NAME>
2-[3-[3-tert-butyl-5-[[2-(1-naphthalenyl)-1,2-dioxoethyl]amino]-1-pyrazolyl]phenoxy]acetic acid

> <PUBCHEM_IUPAC_NAME_MARKUP>
2-[3-[3-<I>tert</I>-butyl-5-[(2-naphthalen-1-yl-2-oxoacetyl)amino]pyrazol-1-yl]phenoxy]acetic acid

> <PUBCHEM_IUPAC_NAME>
2-[3-[3-tert-butyl-5-[(2-naphthalen-1-yl-2-oxoacetyl)amino]pyrazol-1-yl]phenoxy]acetic acid

> <PUBCHEM_IUPAC_SYSTEMATIC_NAME>
2-[3-[3-tert-butyl-5-[(2-naphthalen-1-yl-2-oxidanylidene-ethanoyl)amino]pyrazol-1-yl]phenoxy]ethanoic acid

> <PUBCHEM_IUPAC_TRADITIONAL_NAME>
2-[3-[3-tert-butyl-5-[[2-keto-2-(1-naphthyl)acetyl]amino]pyrazol-1-yl]phenoxy]acetic acid

> <PUBCHEM_IUPAC_INCHI>
InChI=1S/C27H25N3O5/c1-27(2,3)22-15-23(30(29-22)18-10-7-11-19(14-18)35-16-24(31)32)28-26(34)25(33)21-13-6-9-17-8-4-5-12-20(17)21/h4-15H,16H2,1-3H3,(H,28,34)(H,31,32)

> <PUBCHEM_IUPAC_INCHIKEY>
LQRBZQWMQBTWDI-UHFFFAOYSA-N

> <PUBCHEM_XLOGP3_AA>
5.5

> <PUBCHEM_EXACT_MASS>
471.17942091

> <PUBCHEM_MOLECULAR_FORMULA>
C27H25N3O5

> <PUBCHEM_MOLECULAR_WEIGHT>
471.5

> <PUBCHEM_SMILES>
CC(C)(C)C1=NN(C(=C1)NC(=O)C(=O)C2=CC=CC3=CC=CC=C32)C4=CC(=CC=C4)OCC(=O)O

> <PUBCHEM_OPENEYE_CAN_SMILES>
CC(C)(C)C1=NN(C(=C1)NC(=O)C(=O)C2=CC=CC3=CC=CC=C32)C4=CC(=CC=C4)OCC(=O)O

> <PUBCHEM_OPENEYE_ISO_SMILES>
CC(C)(C)C1=NN(C(=C1)NC(=O)C(=O)C2=CC=CC3=CC=CC=C32)C4=CC(=CC=C4)OCC(=O)O

> <PUBCHEM_CACTVS_TPSA>
111

> <PUBCHEM_MONOISOTOPIC_WEIGHT>
471.17942091

> <PUBCHEM_TOTAL_CHARGE>
0

> <PUBCHEM_HEAVY_ATOM_COUNT>
35

> <PUBCHEM_ATOM_DEF_STEREO_COUNT>
0

> <PUBCHEM_ATOM_UDEF_STEREO_COUNT>
0

> <PUBCHEM_BOND_DEF_STEREO_COUNT>
0

> <PUBCHEM_BOND_UDEF_STEREO_COUNT>
0

> <PUBCHEM_ISOTOPIC_ATOM_COUNT>
0

> <PUBCHEM_COMPONENT_COUNT>
1

> <PUBCHEM_CACTVS_TAUTO_COUNT>
-1

> <PUBCHEM_COORDINATE_TYPE>
1
5
255

> <PUBCHEM_BONDANNOTATIONS>
10  14  8
14  15  8
16  17  8
16  18  8
17  20  8
18  24  8
20  26  8
21  22  8
21  27  8
22  25  8
22  28  8
24  26  8
25  29  8
25  31  8
27  30  8
28  32  8
29  30  8
31  33  8
32  33  8
6  15  8
6  7  8
7  10  8

$$$$
