49830288
  -OEChem-03202503382D

 43 46  0     0  0  0  0  0  0999 V2000
    6.3301   -1.6311    0.0000 O   0  0  0  0  0  0  0  0  0  0  0  0
    2.8660    1.3689    0.0000 O   0  0  0  0  0  0  0  0  0  0  0  0
   10.7404   -1.9358    0.0000 N   0  0  0  0  0  0  0  0  0  0  0  0
    8.9282   -2.1311    0.0000 N   0  0  0  0  0  0  0  0  0  0  0  0
    7.1962   -0.1311    0.0000 N   0  0  0  0  0  0  0  0  0  0  0  0
    9.7942   -0.6311    0.0000 C   0  0  0  0  0  0  0  0  0  0  0  0
   10.7404   -0.3264    0.0000 C   0  0  0  0  0  0  0  0  0  0  0  0
    9.7942   -1.6311    0.0000 C   0  0  0  0  0  0  0  0  0  0  0  0
   11.0511    0.6241    0.0000 C   0  0  0  0  0  0  0  0  0  0  0  0
    8.9282   -0.1311    0.0000 C   0  0  0  0  0  0  0  0  0  0  0  0
   11.3241   -1.1311    0.0000 C   0  0  0  0  0  0  0  0  0  0  0  0
    8.0622   -0.6311    0.0000 C   0  0  0  0  0  0  0  0  0  0  0  0
    8.0622   -1.6311    0.0000 C   0  0  0  0  0  0  0  0  0  0  0  0
   10.3833    1.3684    0.0000 C   0  0  0  0  0  0  0  0  0  0  0  0
   12.0296    0.8304    0.0000 C   0  0  0  0  0  0  0  0  0  0  0  0
    6.3301   -0.6311    0.0000 C   0  0  0  0  0  0  0  0  0  0  0  0
    5.4641   -0.1311    0.0000 C   0  0  0  0  0  0  0  0  0  0  0  0
   10.6939    2.3190    0.0000 C   0  0  0  0  0  0  0  0  0  0  0  0
   12.3403    1.7809    0.0000 C   0  0  0  0  0  0  0  0  0  0  0  0
   11.6724    2.5252    0.0000 C   0  0  0  0  0  0  0  0  0  0  0  0
    4.5981   -0.6311    0.0000 C   0  0  0  0  0  0  0  0  0  0  0  0
    5.4641    0.8689    0.0000 C   0  0  0  0  0  0  0  0  0  0  0  0
    3.7320    0.8689    0.0000 C   0  0  0  0  0  0  0  0  0  0  0  0
    3.7320   -0.1311    0.0000 C   0  0  0  0  0  0  0  0  0  0  0  0
    4.5981    1.3689    0.0000 C   0  0  0  0  0  0  0  0  0  0  0  0
    2.0000    0.8689    0.0000 C   0  0  0  0  0  0  0  0  0  0  0  0
    8.9282    0.4889    0.0000 H   0  0  0  0  0  0  0  0  0  0  0  0
   11.9441   -1.1311    0.0000 H   0  0  0  0  0  0  0  0  0  0  0  0
   10.9331   -2.5252    0.0000 H   0  0  0  0  0  0  0  0  0  0  0  0
    7.5252   -1.9411    0.0000 H   0  0  0  0  0  0  0  0  0  0  0  0
    9.7766    1.2406    0.0000 H   0  0  0  0  0  0  0  0  0  0  0  0
   12.4437    0.3689    0.0000 H   0  0  0  0  0  0  0  0  0  0  0  0
    7.1962    0.4889    0.0000 H   0  0  0  0  0  0  0  0  0  0  0  0
   10.2799    2.7804    0.0000 H   0  0  0  0  0  0  0  0  0  0  0  0
   12.9470    1.9087    0.0000 H   0  0  0  0  0  0  0  0  0  0  0  0
   11.8650    3.1145    0.0000 H   0  0  0  0  0  0  0  0  0  0  0  0
    4.5981   -1.2511    0.0000 H   0  0  0  0  0  0  0  0  0  0  0  0
    6.0010    1.1789    0.0000 H   0  0  0  0  0  0  0  0  0  0  0  0
    3.1951   -0.4411    0.0000 H   0  0  0  0  0  0  0  0  0  0  0  0
    4.5981    1.9889    0.0000 H   0  0  0  0  0  0  0  0  0  0  0  0
    1.6900    1.4058    0.0000 H   0  0  0  0  0  0  0  0  0  0  0  0
    1.4631    0.5589    0.0000 H   0  0  0  0  0  0  0  0  0  0  0  0
    2.3100    0.3319    0.0000 H   0  0  0  0  0  0  0  0  0  0  0  0
  1 16  2  0  0  0  0
  2 23  1  0  0  0  0
  2 26  1  0  0  0  0
  3  8  1  0  0  0  0
  3 11  1  0  0  0  0
  3 29  1  0  0  0  0
  4  8  1  0  0  0  0
  4 13  2  0  0  0  0
  5 12  1  0  0  0  0
  5 16  1  0  0  0  0
  5 33  1  0  0  0  0
  6  7  1  0  0  0  0
  6  8  2  0  0  0  0
  6 10  1  0  0  0  0
  7  9  1  0  0  0  0
  7 11  2  0  0  0  0
  9 14  2  0  0  0  0
  9 15  1  0  0  0  0
 10 12  2  0  0  0  0
 10 27  1  0  0  0  0
 11 28  1  0  0  0  0
 12 13  1  0  0  0  0
 13 30  1  0  0  0  0
 14 18  1  0  0  0  0
 14 31  1  0  0  0  0
 15 19  2  0  0  0  0
 15 32  1  0  0  0  0
 16 17  1  0  0  0  0
 17 21  2  0  0  0  0
 17 22  1  0  0  0  0
 18 20  2  0  0  0  0
 18 34  1  0  0  0  0
 19 20  1  0  0  0  0
 19 35  1  0  0  0  0
 20 36  1  0  0  0  0
 21 24  1  0  0  0  0
 21 37  1  0  0  0  0
 22 25  2  0  0  0  0
 22 38  1  0  0  0  0
 23 24  2  0  0  0  0
 23 25  1  0  0  0  0
 24 39  1  0  0  0  0
 25 40  1  0  0  0  0
 26 41  1  0  0  0  0
 26 42  1  0  0  0  0
 26 43  1  0  0  0  0
M  END
> <PUBCHEM_COMPOUND_CID>
49830288

> <PUBCHEM_COMPOUND_CANONICALIZED>
1

> <PUBCHEM_CACTVS_COMPLEXITY>
472

> <PUBCHEM_CACTVS_HBOND_ACCEPTOR>
3

> <PUBCHEM_CACTVS_HBOND_DONOR>
2

> <PUBCHEM_CACTVS_ROTATABLE_BOND>
4

> <PUBCHEM_CACTVS_SUBSKEYS>
AAADceB7MAAAAAAAAAAAAAAAAAAAAWAAAAA8YIAAAAAAAFgB/AAAHgAQAAAADAzBmwY/9t7JlACoAjd3dACCiCm1MqAJ2aEufNiMbvLEvZuUMShs1BPI6aeY3MLOoAAAAAAAAABAAAAAAAAAAAAAAAAAAA==

> <PUBCHEM_IUPAC_OPENEYE_NAME>
4-methoxy-N-(3-phenyl-1H-pyrrolo[2,3-b]pyridin-5-yl)benzamide

> <PUBCHEM_IUPAC_CAS_NAME>
4-methoxy-N-(3-phenyl-1H-pyrrolo[2,3-b]pyridin-5-yl)benzamide

> <PUBCHEM_IUPAC_NAME_MARKUP>
4-methoxy-<I>N</I>-(3-phenyl-1<I>H</I>-pyrrolo[2,3-b]pyridin-5-yl)benzamide

> <PUBCHEM_IUPAC_NAME>
4-methoxy-N-(3-phenyl-1H-pyrrolo[2,3-b]pyridin-5-yl)benzamide

> <PUBCHEM_IUPAC_SYSTEMATIC_NAME>
4-methoxy-N-(3-phenyl-1H-pyrrolo[2,3-b]pyridin-5-yl)benzamide

> <PUBCHEM_IUPAC_TRADITIONAL_NAME>
4-methoxy-N-(3-phenyl-1H-pyrrolo[2,3-b]pyridin-5-yl)benzamide

> <PUBCHEM_IUPAC_INCHI>
InChI=1S/C21H17N3O2/c1-26-17-9-7-15(8-10-17)21(25)24-16-11-18-19(13-23-20(18)22-12-16)14-5-3-2-4-6-14/h2-13H,1H3,(H,22,23)(H,24,25)

> <PUBCHEM_IUPAC_INCHIKEY>
KAKFXRYHYUPXSU-UHFFFAOYSA-N

> <PUBCHEM_XLOGP3_AA>
3.7

> <PUBCHEM_EXACT_MASS>
343.132076794

> <PUBCHEM_MOLECULAR_FORMULA>
C21H17N3O2

> <PUBCHEM_MOLECULAR_WEIGHT>
343.4

> <PUBCHEM_SMILES>
COC1=CC=C(C=C1)C(=O)NC2=CC3=C(NC=C3C4=CC=CC=C4)N=C2

> <PUBCHEM_OPENEYE_CAN_SMILES>
COC1=CC=C(C=C1)C(=O)NC2=CC3=C(NC=C3C4=CC=CC=C4)N=C2

> <PUBCHEM_OPENEYE_ISO_SMILES>
COC1=CC=C(C=C1)C(=O)NC2=CC3=C(NC=C3C4=CC=CC=C4)N=C2

> <PUBCHEM_CACTVS_TPSA>
67

> <PUBCHEM_MONOISOTOPIC_WEIGHT>
343.132076794

> <PUBCHEM_TOTAL_CHARGE>
0

> <PUBCHEM_HEAVY_ATOM_COUNT>
26

> <PUBCHEM_ATOM_DEF_STEREO_COUNT>
0

> <PUBCHEM_ATOM_UDEF_STEREO_COUNT>
0

> <PUBCHEM_BOND_DEF_STEREO_COUNT>
0

> <PUBCHEM_BOND_UDEF_STEREO_COUNT>
0

> <PUBCHEM_ISOTOPIC_ATOM_COUNT>
0

> <PUBCHEM_COMPONENT_COUNT>
1

> <PUBCHEM_CACTVS_TAUTO_COUNT>
-1

> <PUBCHEM_COORDINATE_TYPE>
1
5
255

> <PUBCHEM_BONDANNOTATIONS>
10  12  8
12  13  8
14  18  8
15  19  8
17  21  8
17  22  8
18  20  8
19  20  8
21  24  8
22  25  8
23  24  8
23  25  8
3  11  8
3  8  8
4  13  8
4  8  8
6  10  8
6  7  8
6  8  8
7  11  8
9  14  8
9  15  8

$$$$
