49830709
  -OEChem-03202504052D

 43 45  0     1  0  0  0  0  0999 V2000
    4.5981    3.5000    0.0000 O   0  0  0  0  0  0  0  0  0  0  0  0
    2.8660   -1.5000    0.0000 O   0  0  0  0  0  0  0  0  0  0  0  0
    3.7320    0.0000    0.0000 N   0  0  0  0  0  0  0  0  0  0  0  0
    5.4641   -3.0000    0.0000 N   0  0  0  0  0  0  0  0  0  0  0  0
    6.3301   -1.5000    0.0000 N   0  0  0  0  0  0  0  0  0  0  0  0
    8.9282   -4.0000    0.0000 N   0  0  0  0  0  0  0  0  0  0  0  0
    2.8660    0.5000    0.0000 C   0  0  3  0  0  0  0  0  0  0  0  0
    2.8660    1.5000    0.0000 C   0  0  0  0  0  0  0  0  0  0  0  0
    2.0000    0.0000    0.0000 C   0  0  0  0  0  0  0  0  0  0  0  0
    3.7320    2.0000    0.0000 C   0  0  0  0  0  0  0  0  0  0  0  0
    2.0000    2.0000    0.0000 C   0  0  0  0  0  0  0  0  0  0  0  0
    3.7320   -1.0000    0.0000 C   0  0  0  0  0  0  0  0  0  0  0  0
    3.7320    3.0000    0.0000 C   0  0  0  0  0  0  0  0  0  0  0  0
    2.0000    3.0000    0.0000 C   0  0  0  0  0  0  0  0  0  0  0  0
    2.8660    3.5000    0.0000 C   0  0  0  0  0  0  0  0  0  0  0  0
    4.5981   -1.5000    0.0000 C   0  0  0  0  0  0  0  0  0  0  0  0
    4.5981   -2.5000    0.0000 C   0  0  0  0  0  0  0  0  0  0  0  0
    5.4641   -1.0000    0.0000 C   0  0  0  0  0  0  0  0  0  0  0  0
    6.3301   -2.5000    0.0000 C   0  0  0  0  0  0  0  0  0  0  0  0
    7.1962   -3.0000    0.0000 C   0  0  0  0  0  0  0  0  0  0  0  0
    7.1962   -4.0000    0.0000 C   0  0  0  0  0  0  0  0  0  0  0  0
    8.0622   -2.5000    0.0000 C   0  0  0  0  0  0  0  0  0  0  0  0
    4.5981    4.5000    0.0000 C   0  0  0  0  0  0  0  0  0  0  0  0
    8.0622   -4.5000    0.0000 C   0  0  0  0  0  0  0  0  0  0  0  0
    8.9282   -3.0000    0.0000 C   0  0  0  0  0  0  0  0  0  0  0  0
    2.8660   -0.1200    0.0000 H   0  0  0  0  0  0  0  0  0  0  0  0
    1.6900    0.5369    0.0000 H   0  0  0  0  0  0  0  0  0  0  0  0
    1.4631   -0.3100    0.0000 H   0  0  0  0  0  0  0  0  0  0  0  0
    2.3100   -0.5369    0.0000 H   0  0  0  0  0  0  0  0  0  0  0  0
    4.2690    0.3100    0.0000 H   0  0  0  0  0  0  0  0  0  0  0  0
    4.2690    1.6900    0.0000 H   0  0  0  0  0  0  0  0  0  0  0  0
    1.4631    1.6900    0.0000 H   0  0  0  0  0  0  0  0  0  0  0  0
    1.4631    3.3100    0.0000 H   0  0  0  0  0  0  0  0  0  0  0  0
    2.8660    4.1200    0.0000 H   0  0  0  0  0  0  0  0  0  0  0  0
    4.0611   -2.8100    0.0000 H   0  0  0  0  0  0  0  0  0  0  0  0
    5.4641   -0.3800    0.0000 H   0  0  0  0  0  0  0  0  0  0  0  0
    6.6592   -4.3100    0.0000 H   0  0  0  0  0  0  0  0  0  0  0  0
    8.0622   -1.8800    0.0000 H   0  0  0  0  0  0  0  0  0  0  0  0
    5.2181    4.5000    0.0000 H   0  0  0  0  0  0  0  0  0  0  0  0
    4.5981    5.1200    0.0000 H   0  0  0  0  0  0  0  0  0  0  0  0
    3.9781    4.5000    0.0000 H   0  0  0  0  0  0  0  0  0  0  0  0
    8.0622   -5.1200    0.0000 H   0  0  0  0  0  0  0  0  0  0  0  0
    9.4651   -2.6900    0.0000 H   0  0  0  0  0  0  0  0  0  0  0  0
  1 13  1  0  0  0  0
  1 23  1  0  0  0  0
  2 12  2  0  0  0  0
  3  7  1  0  0  0  0
  3 12  1  0  0  0  0
  3 30  1  0  0  0  0
  4 17  2  0  0  0  0
  4 19  1  0  0  0  0
  5 18  1  0  0  0  0
  5 19  2  0  0  0  0
  6 24  2  0  0  0  0
  6 25  1  0  0  0  0
  7  8  1  0  0  0  0
  7  9  1  0  0  0  0
  7 26  1  0  0  0  0
  8 10  2  0  0  0  0
  8 11  1  0  0  0  0
  9 27  1  0  0  0  0
  9 28  1  0  0  0  0
  9 29  1  0  0  0  0
 10 13  1  0  0  0  0
 10 31  1  0  0  0  0
 11 14  2  0  0  0  0
 11 32  1  0  0  0  0
 12 16  1  0  0  0  0
 13 15  2  0  0  0  0
 14 15  1  0  0  0  0
 14 33  1  0  0  0  0
 15 34  1  0  0  0  0
 16 17  1  0  0  0  0
 16 18  2  0  0  0  0
 17 35  1  0  0  0  0
 18 36  1  0  0  0  0
 19 20  1  0  0  0  0
 20 21  2  0  0  0  0
 20 22  1  0  0  0  0
 21 24  1  0  0  0  0
 21 37  1  0  0  0  0
 22 25  2  0  0  0  0
 22 38  1  0  0  0  0
 23 39  1  0  0  0  0
 23 40  1  0  0  0  0
 23 41  1  0  0  0  0
 24 42  1  0  0  0  0
 25 43  1  0  0  0  0
M  END
> <PUBCHEM_COMPOUND_CID>
49830709

> <PUBCHEM_COMPOUND_CANONICALIZED>
1

> <PUBCHEM_CACTVS_COMPLEXITY>
420

> <PUBCHEM_CACTVS_HBOND_ACCEPTOR>
5

> <PUBCHEM_CACTVS_HBOND_DONOR>
1

> <PUBCHEM_CACTVS_ROTATABLE_BOND>
5

> <PUBCHEM_CACTVS_SUBSKEYS>
AAADceB7sAAAAAAAAAAAAAAAAAAAAAAAAAA8WIAAAAAAAAAB8AAAHgAQAAAADCzBmwY/lpbIFACoAjN3dACCiCk1IqAJ2KE+bNiMLurE+duENKhs1hPI6OewwLAOAAABAAAAAAAAAAIAAAAAAAAAAAAAAA==

> <PUBCHEM_IUPAC_OPENEYE_NAME>
N-[1-(3-methoxyphenyl)ethyl]-2-(4-pyridyl)pyrimidine-5-carboxamide

> <PUBCHEM_IUPAC_CAS_NAME>
N-[1-(3-methoxyphenyl)ethyl]-2-pyridin-4-yl-5-pyrimidinecarboxamide

> <PUBCHEM_IUPAC_NAME_MARKUP>
<I>N</I>-[1-(3-methoxyphenyl)ethyl]-2-pyridin-4-ylpyrimidine-5-carboxamide

> <PUBCHEM_IUPAC_NAME>
N-[1-(3-methoxyphenyl)ethyl]-2-pyridin-4-ylpyrimidine-5-carboxamide

> <PUBCHEM_IUPAC_SYSTEMATIC_NAME>
N-[1-(3-methoxyphenyl)ethyl]-2-pyridin-4-yl-pyrimidine-5-carboxamide

> <PUBCHEM_IUPAC_TRADITIONAL_NAME>
N-[1-(3-methoxyphenyl)ethyl]-2-(4-pyridyl)pyrimidine-5-carboxamide

> <PUBCHEM_IUPAC_INCHI>
InChI=1S/C19H18N4O2/c1-13(15-4-3-5-17(10-15)25-2)23-19(24)16-11-21-18(22-12-16)14-6-8-20-9-7-14/h3-13H,1-2H3,(H,23,24)

> <PUBCHEM_IUPAC_INCHIKEY>
AOFGEEDOUASHKV-UHFFFAOYSA-N

> <PUBCHEM_XLOGP3_AA>
1.9

> <PUBCHEM_EXACT_MASS>
334.14297583

> <PUBCHEM_MOLECULAR_FORMULA>
C19H18N4O2

> <PUBCHEM_MOLECULAR_WEIGHT>
334.4

> <PUBCHEM_SMILES>
CC(C1=CC(=CC=C1)OC)NC(=O)C2=CN=C(N=C2)C3=CC=NC=C3

> <PUBCHEM_OPENEYE_CAN_SMILES>
CC(C1=CC(=CC=C1)OC)NC(=O)C2=CN=C(N=C2)C3=CC=NC=C3

> <PUBCHEM_OPENEYE_ISO_SMILES>
CC(C1=CC(=CC=C1)OC)NC(=O)C2=CN=C(N=C2)C3=CC=NC=C3

> <PUBCHEM_CACTVS_TPSA>
77

> <PUBCHEM_MONOISOTOPIC_WEIGHT>
334.14297583

> <PUBCHEM_TOTAL_CHARGE>
0

> <PUBCHEM_HEAVY_ATOM_COUNT>
25

> <PUBCHEM_ATOM_DEF_STEREO_COUNT>
0

> <PUBCHEM_ATOM_UDEF_STEREO_COUNT>
1

> <PUBCHEM_BOND_DEF_STEREO_COUNT>
0

> <PUBCHEM_BOND_UDEF_STEREO_COUNT>
0

> <PUBCHEM_ISOTOPIC_ATOM_COUNT>
0

> <PUBCHEM_COMPONENT_COUNT>
1

> <PUBCHEM_CACTVS_TAUTO_COUNT>
-1

> <PUBCHEM_COORDINATE_TYPE>
1
5
255

> <PUBCHEM_BONDANNOTATIONS>
10  13  8
11  14  8
13  15  8
14  15  8
16  17  8
16  18  8
20  21  8
20  22  8
21  24  8
22  25  8
4  17  8
4  19  8
5  18  8
5  19  8
6  24  8
6  25  8
7  9  3
8  10  8
8  11  8

$$$$
