25205919
  -OEChem-03202502232D

 40 42  0     0  0  0  0  0  0999 V2000
    2.8910    1.8045    0.0000 O   0  0  0  0  0  0  0  0  0  0  0  0
    4.5981    3.5116    0.0000 O   0  0  0  0  0  0  0  0  0  0  0  0
    4.5981    0.0974    0.0000 N   0  0  0  0  0  0  0  0  0  0  0  0
    6.3052    1.8045    0.0000 N   0  0  0  0  0  0  0  0  0  0  0  0
    7.8052    4.4026    0.0000 N   0  0  0  0  0  0  0  0  0  0  0  0
    4.5981    1.0974    0.0000 C   0  0  0  0  0  0  0  0  0  0  0  0
    3.7320   -0.4026    0.0000 C   0  0  0  0  0  0  0  0  0  0  0  0
    5.3052    1.8045    0.0000 C   0  0  0  0  0  0  0  0  0  0  0  0
    3.7320   -1.4026    0.0000 C   0  0  0  0  0  0  0  0  0  0  0  0
    3.8910    1.8045    0.0000 C   0  0  0  0  0  0  0  0  0  0  0  0
    4.5981    2.5116    0.0000 C   0  0  0  0  0  0  0  0  0  0  0  0
    2.8660   -2.9026    0.0000 C   0  0  0  0  0  0  0  0  0  0  0  0
    2.8660   -1.9026    0.0000 C   0  0  0  0  0  0  0  0  0  0  0  0
    3.7320   -3.4026    0.0000 C   0  0  0  0  0  0  0  0  0  0  0  0
    4.5981   -1.9026    0.0000 C   0  0  0  0  0  0  0  0  0  0  0  0
    4.5981   -2.9026    0.0000 C   0  0  0  0  0  0  0  0  0  0  0  0
    6.8052    2.6705    0.0000 C   0  0  0  0  0  0  0  0  0  0  0  0
    2.0000   -3.4026    0.0000 C   0  0  0  0  0  0  0  0  0  0  0  0
    3.7320   -4.4026    0.0000 C   0  0  0  0  0  0  0  0  0  0  0  0
    7.8052    2.6705    0.0000 C   0  0  0  0  0  0  0  0  0  0  0  0
    6.3052    3.5366    0.0000 C   0  0  0  0  0  0  0  0  0  0  0  0
    8.3052    3.5366    0.0000 C   0  0  0  0  0  0  0  0  0  0  0  0
    6.8052    4.4026    0.0000 C   0  0  0  0  0  0  0  0  0  0  0  0
    3.5200    0.1800    0.0000 H   0  0  0  0  0  0  0  0  0  0  0  0
    3.1215   -0.5103    0.0000 H   0  0  0  0  0  0  0  0  0  0  0  0
    5.1350   -0.2126    0.0000 H   0  0  0  0  0  0  0  0  0  0  0  0
    2.3291   -1.5926    0.0000 H   0  0  0  0  0  0  0  0  0  0  0  0
    5.1350   -1.5926    0.0000 H   0  0  0  0  0  0  0  0  0  0  0  0
    6.6152    1.2676    0.0000 H   0  0  0  0  0  0  0  0  0  0  0  0
    5.1350   -3.2126    0.0000 H   0  0  0  0  0  0  0  0  0  0  0  0
    1.6900   -2.8657    0.0000 H   0  0  0  0  0  0  0  0  0  0  0  0
    1.4631   -3.7126    0.0000 H   0  0  0  0  0  0  0  0  0  0  0  0
    2.3100   -3.9395    0.0000 H   0  0  0  0  0  0  0  0  0  0  0  0
    3.1120   -4.4026    0.0000 H   0  0  0  0  0  0  0  0  0  0  0  0
    3.7320   -5.0226    0.0000 H   0  0  0  0  0  0  0  0  0  0  0  0
    4.3520   -4.4026    0.0000 H   0  0  0  0  0  0  0  0  0  0  0  0
    8.1152    2.1336    0.0000 H   0  0  0  0  0  0  0  0  0  0  0  0
    5.6852    3.5366    0.0000 H   0  0  0  0  0  0  0  0  0  0  0  0
    8.9252    3.5366    0.0000 H   0  0  0  0  0  0  0  0  0  0  0  0
    6.4952    4.9395    0.0000 H   0  0  0  0  0  0  0  0  0  0  0  0
  1 10  2  0  0  0  0
  2 11  2  0  0  0  0
  3  6  1  0  0  0  0
  3  7  1  0  0  0  0
  3 26  1  0  0  0  0
  4  8  1  0  0  0  0
  4 17  1  0  0  0  0
  4 29  1  0  0  0  0
  5 22  2  0  0  0  0
  5 23  1  0  0  0  0
  6  8  2  0  0  0  0
  6 10  1  0  0  0  0
  7  9  1  0  0  0  0
  7 24  1  0  0  0  0
  7 25  1  0  0  0  0
  8 11  1  0  0  0  0
  9 13  2  0  0  0  0
  9 15  1  0  0  0  0
 10 11  1  0  0  0  0
 12 13  1  0  0  0  0
 12 14  2  0  0  0  0
 12 18  1  0  0  0  0
 13 27  1  0  0  0  0
 14 16  1  0  0  0  0
 14 19  1  0  0  0  0
 15 16  2  0  0  0  0
 15 28  1  0  0  0  0
 16 30  1  0  0  0  0
 17 20  2  0  0  0  0
 17 21  1  0  0  0  0
 18 31  1  0  0  0  0
 18 32  1  0  0  0  0
 18 33  1  0  0  0  0
 19 34  1  0  0  0  0
 19 35  1  0  0  0  0
 19 36  1  0  0  0  0
 20 22  1  0  0  0  0
 20 37  1  0  0  0  0
 21 23  2  0  0  0  0
 21 38  1  0  0  0  0
 22 39  1  0  0  0  0
 23 40  1  0  0  0  0
M  END
> <PUBCHEM_COMPOUND_CID>
25205919

> <PUBCHEM_COMPOUND_CANONICALIZED>
1

> <PUBCHEM_CACTVS_COMPLEXITY>
508

> <PUBCHEM_CACTVS_HBOND_ACCEPTOR>
5

> <PUBCHEM_CACTVS_HBOND_DONOR>
2

> <PUBCHEM_CACTVS_ROTATABLE_BOND>
5

> <PUBCHEM_CACTVS_SUBSKEYS>
AAADceB7MAAAAAAAAAAAAAAAAABAAAAAAAA8QAAAAAAAAAABwAAAHgAQAAAADAzBmgQ+wJLIEACoArR3RACCgCAxAiAI2KG4ZNgIIGrA0fGEJAhgkADIyUcQgMAOwAACAAAQAACAAAQAACAAAAAAAAAAAA==

> <PUBCHEM_IUPAC_OPENEYE_NAME>
3-[(3,4-dimethylphenyl)methylamino]-4-(4-pyridylamino)cyclobut-3-ene-1,2-dione

> <PUBCHEM_IUPAC_CAS_NAME>
3-[(3,4-dimethylphenyl)methylamino]-4-(pyridin-4-ylamino)cyclobut-3-ene-1,2-dione

> <PUBCHEM_IUPAC_NAME_MARKUP>
3-[(3,4-dimethylphenyl)methylamino]-4-(pyridin-4-ylamino)cyclobut-3-ene-1,2-dione

> <PUBCHEM_IUPAC_NAME>
3-[(3,4-dimethylphenyl)methylamino]-4-(pyridin-4-ylamino)cyclobut-3-ene-1,2-dione

> <PUBCHEM_IUPAC_SYSTEMATIC_NAME>
3-[(3,4-dimethylphenyl)methylamino]-4-(pyridin-4-ylamino)cyclobut-3-ene-1,2-dione

> <PUBCHEM_IUPAC_TRADITIONAL_NAME>
3-[(3,4-dimethylbenzyl)amino]-4-(4-pyridylamino)cyclobut-3-ene-1,2-quinone

> <PUBCHEM_IUPAC_INCHI>
InChI=1S/C18H17N3O2/c1-11-3-4-13(9-12(11)2)10-20-15-16(18(23)17(15)22)21-14-5-7-19-8-6-14/h3-9,20H,10H2,1-2H3,(H,19,21)

> <PUBCHEM_IUPAC_INCHIKEY>
SOVYWBOZOBVFLP-UHFFFAOYSA-N

> <PUBCHEM_XLOGP3_AA>
2.7

> <PUBCHEM_EXACT_MASS>
307.132076794

> <PUBCHEM_MOLECULAR_FORMULA>
C18H17N3O2

> <PUBCHEM_MOLECULAR_WEIGHT>
307.3

> <PUBCHEM_SMILES>
CC1=C(C=C(C=C1)CNC2=C(C(=O)C2=O)NC3=CC=NC=C3)C

> <PUBCHEM_OPENEYE_CAN_SMILES>
CC1=C(C=C(C=C1)CNC2=C(C(=O)C2=O)NC3=CC=NC=C3)C

> <PUBCHEM_OPENEYE_ISO_SMILES>
CC1=C(C=C(C=C1)CNC2=C(C(=O)C2=O)NC3=CC=NC=C3)C

> <PUBCHEM_CACTVS_TPSA>
71.1

> <PUBCHEM_MONOISOTOPIC_WEIGHT>
307.132076794

> <PUBCHEM_TOTAL_CHARGE>
0

> <PUBCHEM_HEAVY_ATOM_COUNT>
23

> <PUBCHEM_ATOM_DEF_STEREO_COUNT>
0

> <PUBCHEM_ATOM_UDEF_STEREO_COUNT>
0

> <PUBCHEM_BOND_DEF_STEREO_COUNT>
0

> <PUBCHEM_BOND_UDEF_STEREO_COUNT>
0

> <PUBCHEM_ISOTOPIC_ATOM_COUNT>
0

> <PUBCHEM_COMPONENT_COUNT>
1

> <PUBCHEM_CACTVS_TAUTO_COUNT>
-1

> <PUBCHEM_COORDINATE_TYPE>
1
5
255

> <PUBCHEM_BONDANNOTATIONS>
10  11  8
12  13  8
12  14  8
14  16  8
15  16  8
17  20  8
17  21  8
20  22  8
21  23  8
5  22  8
5  23  8
6  10  8
6  8  8
8  11  8
9  13  8
9  15  8

$$$$
