49830278
  -OEChem-03202503322D

 39 42  0     0  0  0  0  0  0999 V2000
    4.5981    1.3689    0.0000 F   0  0  0  0  0  0  0  0  0  0  0  0
    2.8660   -1.6311    0.0000 F   0  0  0  0  0  0  0  0  0  0  0  0
    4.5981   -1.6311    0.0000 O   0  0  0  0  0  0  0  0  0  0  0  0
    9.0084   -1.9358    0.0000 N   0  0  0  0  0  0  0  0  0  0  0  0
    7.1962   -2.1311    0.0000 N   0  0  0  0  0  0  0  0  0  0  0  0
    5.4641   -0.1311    0.0000 N   0  0  0  0  0  0  0  0  0  0  0  0
    8.0622   -0.6311    0.0000 C   0  0  0  0  0  0  0  0  0  0  0  0
    9.0084   -0.3264    0.0000 C   0  0  0  0  0  0  0  0  0  0  0  0
    8.0622   -1.6311    0.0000 C   0  0  0  0  0  0  0  0  0  0  0  0
    7.1962   -0.1311    0.0000 C   0  0  0  0  0  0  0  0  0  0  0  0
    9.3191    0.6241    0.0000 C   0  0  0  0  0  0  0  0  0  0  0  0
    9.5920   -1.1311    0.0000 C   0  0  0  0  0  0  0  0  0  0  0  0
    6.3301   -0.6311    0.0000 C   0  0  0  0  0  0  0  0  0  0  0  0
    6.3301   -1.6311    0.0000 C   0  0  0  0  0  0  0  0  0  0  0  0
    8.6512    1.3684    0.0000 C   0  0  0  0  0  0  0  0  0  0  0  0
   10.2976    0.8304    0.0000 C   0  0  0  0  0  0  0  0  0  0  0  0
    4.5981   -0.6311    0.0000 C   0  0  0  0  0  0  0  0  0  0  0  0
    8.9619    2.3190    0.0000 C   0  0  0  0  0  0  0  0  0  0  0  0
   10.6082    1.7809    0.0000 C   0  0  0  0  0  0  0  0  0  0  0  0
    3.7320   -0.1311    0.0000 C   0  0  0  0  0  0  0  0  0  0  0  0
    9.9404    2.5252    0.0000 C   0  0  0  0  0  0  0  0  0  0  0  0
    3.7320    0.8689    0.0000 C   0  0  0  0  0  0  0  0  0  0  0  0
    2.8660   -0.6311    0.0000 C   0  0  0  0  0  0  0  0  0  0  0  0
    2.8660    1.3689    0.0000 C   0  0  0  0  0  0  0  0  0  0  0  0
    2.0000   -0.1311    0.0000 C   0  0  0  0  0  0  0  0  0  0  0  0
    2.0000    0.8689    0.0000 C   0  0  0  0  0  0  0  0  0  0  0  0
    7.1962    0.4889    0.0000 H   0  0  0  0  0  0  0  0  0  0  0  0
   10.2120   -1.1311    0.0000 H   0  0  0  0  0  0  0  0  0  0  0  0
    9.2010   -2.5252    0.0000 H   0  0  0  0  0  0  0  0  0  0  0  0
    5.7932   -1.9411    0.0000 H   0  0  0  0  0  0  0  0  0  0  0  0
    8.0445    1.2406    0.0000 H   0  0  0  0  0  0  0  0  0  0  0  0
   10.7116    0.3689    0.0000 H   0  0  0  0  0  0  0  0  0  0  0  0
    5.4641    0.4889    0.0000 H   0  0  0  0  0  0  0  0  0  0  0  0
    8.5478    2.7804    0.0000 H   0  0  0  0  0  0  0  0  0  0  0  0
   11.2149    1.9087    0.0000 H   0  0  0  0  0  0  0  0  0  0  0  0
   10.1330    3.1145    0.0000 H   0  0  0  0  0  0  0  0  0  0  0  0
    2.8660    1.9889    0.0000 H   0  0  0  0  0  0  0  0  0  0  0  0
    1.4631   -0.4411    0.0000 H   0  0  0  0  0  0  0  0  0  0  0  0
    1.4631    1.1789    0.0000 H   0  0  0  0  0  0  0  0  0  0  0  0
  1 22  1  0  0  0  0
  2 23  1  0  0  0  0
  3 17  2  0  0  0  0
  4  9  1  0  0  0  0
  4 12  1  0  0  0  0
  4 29  1  0  0  0  0
  5  9  1  0  0  0  0
  5 14  2  0  0  0  0
  6 13  1  0  0  0  0
  6 17  1  0  0  0  0
  6 33  1  0  0  0  0
  7  8  1  0  0  0  0
  7  9  2  0  0  0  0
  7 10  1  0  0  0  0
  8 11  1  0  0  0  0
  8 12  2  0  0  0  0
 10 13  2  0  0  0  0
 10 27  1  0  0  0  0
 11 15  2  0  0  0  0
 11 16  1  0  0  0  0
 12 28  1  0  0  0  0
 13 14  1  0  0  0  0
 14 30  1  0  0  0  0
 15 18  1  0  0  0  0
 15 31  1  0  0  0  0
 16 19  2  0  0  0  0
 16 32  1  0  0  0  0
 17 20  1  0  0  0  0
 18 21  2  0  0  0  0
 18 34  1  0  0  0  0
 19 21  1  0  0  0  0
 19 35  1  0  0  0  0
 20 22  2  0  0  0  0
 20 23  1  0  0  0  0
 21 36  1  0  0  0  0
 22 24  1  0  0  0  0
 23 25  2  0  0  0  0
 24 26  2  0  0  0  0
 24 37  1  0  0  0  0
 25 26  1  0  0  0  0
 25 38  1  0  0  0  0
 26 39  1  0  0  0  0
M  END
> <PUBCHEM_COMPOUND_CID>
49830278

> <PUBCHEM_COMPOUND_CANONICALIZED>
1

> <PUBCHEM_CACTVS_COMPLEXITY>
489

> <PUBCHEM_CACTVS_HBOND_ACCEPTOR>
4

> <PUBCHEM_CACTVS_HBOND_DONOR>
2

> <PUBCHEM_CACTVS_ROTATABLE_BOND>
3

> <PUBCHEM_CACTVS_SUBSKEYS>
AAADccB7IYAAAAAAAAAAAAAAAAAAAWAAAAA8YIAAAAAAAFgB/AAAHwAQAAAADAjBmww98N7JkACoAjd3dACCgCm1EqAJ2aEodNiIaPLAnZGUIQholALIyScYiMCOgAAAAAAAAAAAAAAAAAAAAAAAAAAAAA==

> <PUBCHEM_IUPAC_OPENEYE_NAME>
2,6-difluoro-N-(3-phenyl-1H-pyrrolo[2,3-b]pyridin-5-yl)benzamide

> <PUBCHEM_IUPAC_CAS_NAME>
2,6-difluoro-N-(3-phenyl-1H-pyrrolo[2,3-b]pyridin-5-yl)benzamide

> <PUBCHEM_IUPAC_NAME_MARKUP>
2,6-difluoro-<I>N</I>-(3-phenyl-1<I>H</I>-pyrrolo[2,3-b]pyridin-5-yl)benzamide

> <PUBCHEM_IUPAC_NAME>
2,6-difluoro-N-(3-phenyl-1H-pyrrolo[2,3-b]pyridin-5-yl)benzamide

> <PUBCHEM_IUPAC_SYSTEMATIC_NAME>
2,6-bis(fluoranyl)-N-(3-phenyl-1H-pyrrolo[2,3-b]pyridin-5-yl)benzamide

> <PUBCHEM_IUPAC_TRADITIONAL_NAME>
2,6-difluoro-N-(3-phenyl-1H-pyrrolo[2,3-b]pyridin-5-yl)benzamide

> <PUBCHEM_IUPAC_INCHI>
InChI=1S/C20H13F2N3O/c21-16-7-4-8-17(22)18(16)20(26)25-13-9-14-15(11-24-19(14)23-10-13)12-5-2-1-3-6-12/h1-11H,(H,23,24)(H,25,26)

> <PUBCHEM_IUPAC_INCHIKEY>
UUWNXFJBBYAMDT-UHFFFAOYSA-N

> <PUBCHEM_XLOGP3_AA>
4

> <PUBCHEM_EXACT_MASS>
349.10266837

> <PUBCHEM_MOLECULAR_FORMULA>
C20H13F2N3O

> <PUBCHEM_MOLECULAR_WEIGHT>
349.3

> <PUBCHEM_SMILES>
C1=CC=C(C=C1)C2=CNC3=C2C=C(C=N3)NC(=O)C4=C(C=CC=C4F)F

> <PUBCHEM_OPENEYE_CAN_SMILES>
C1=CC=C(C=C1)C2=CNC3=C2C=C(C=N3)NC(=O)C4=C(C=CC=C4F)F

> <PUBCHEM_OPENEYE_ISO_SMILES>
C1=CC=C(C=C1)C2=CNC3=C2C=C(C=N3)NC(=O)C4=C(C=CC=C4F)F

> <PUBCHEM_CACTVS_TPSA>
57.8

> <PUBCHEM_MONOISOTOPIC_WEIGHT>
349.10266837

> <PUBCHEM_TOTAL_CHARGE>
0

> <PUBCHEM_HEAVY_ATOM_COUNT>
26

> <PUBCHEM_ATOM_DEF_STEREO_COUNT>
0

> <PUBCHEM_ATOM_UDEF_STEREO_COUNT>
0

> <PUBCHEM_BOND_DEF_STEREO_COUNT>
0

> <PUBCHEM_BOND_UDEF_STEREO_COUNT>
0

> <PUBCHEM_ISOTOPIC_ATOM_COUNT>
0

> <PUBCHEM_COMPONENT_COUNT>
1

> <PUBCHEM_CACTVS_TAUTO_COUNT>
-1

> <PUBCHEM_COORDINATE_TYPE>
1
5
255

> <PUBCHEM_BONDANNOTATIONS>
10  13  8
11  15  8
11  16  8
13  14  8
15  18  8
16  19  8
18  21  8
19  21  8
20  22  8
20  23  8
22  24  8
23  25  8
24  26  8
25  26  8
4  12  8
4  9  8
5  14  8
5  9  8
7  10  8
7  8  8
7  9  8
8  12  8

$$$$
