44570553
  -OEChem-03202506312D

 51 53  0     0  0  0  0  0  0999 V2000
   10.6603    5.1830    0.0000 I   0  0  0  0  0  0  0  0  0  0  0  0
    2.8660   -4.3170    0.0000 S   0  0  0  0  0  0  0  0  0  0  0  0
    8.9282    0.1830    0.0000 F   0  0  0  0  0  0  0  0  0  0  0  0
    8.9282    2.1830    0.0000 F   0  0  0  0  0  0  0  0  0  0  0  0
    7.1962    5.1830    0.0000 F   0  0  0  0  0  0  0  0  0  0  0  0
    3.3660   -5.1830    0.0000 O   0  0  0  0  0  0  0  0  0  0  0  0
    2.3660   -3.4510    0.0000 O   0  0  0  0  0  0  0  0  0  0  0  0
    4.5981    1.6830    0.0000 O   0  0  0  0  0  0  0  0  0  0  0  0
    5.4641    3.1830    0.0000 O   0  0  0  0  0  0  0  0  0  0  0  0
    6.3301   -1.3170    0.0000 N   0  0  0  0  0  0  0  0  0  0  0  0
    7.1962    3.1830    0.0000 N   0  0  0  0  0  0  0  0  0  0  0  0
    7.1962   -0.8170    0.0000 C   0  0  0  0  0  0  0  0  0  0  0  0
    6.3301   -2.3170    0.0000 C   0  0  0  0  0  0  0  0  0  0  0  0
    7.1962    0.1830    0.0000 C   0  0  0  0  0  0  0  0  0  0  0  0
    5.4641   -2.8170    0.0000 C   0  0  0  0  0  0  0  0  0  0  0  0
    6.3301    0.6830    0.0000 C   0  0  0  0  0  0  0  0  0  0  0  0
    7.1962    2.1830    0.0000 C   0  0  0  0  0  0  0  0  0  0  0  0
    6.3301    1.6830    0.0000 C   0  0  0  0  0  0  0  0  0  0  0  0
    3.7320   -3.8170    0.0000 C   0  0  0  0  0  0  0  0  0  0  0  0
    8.0622    0.6830    0.0000 C   0  0  0  0  0  0  0  0  0  0  0  0
    4.5981   -2.3170    0.0000 C   0  0  0  0  0  0  0  0  0  0  0  0
    5.4641   -3.8170    0.0000 C   0  0  0  0  0  0  0  0  0  0  0  0
    8.0622    1.6830    0.0000 C   0  0  0  0  0  0  0  0  0  0  0  0
    3.7320   -2.8170    0.0000 C   0  0  0  0  0  0  0  0  0  0  0  0
    4.5981   -4.3170    0.0000 C   0  0  0  0  0  0  0  0  0  0  0  0
    8.0622    3.6830    0.0000 C   0  0  0  0  0  0  0  0  0  0  0  0
    2.0000   -4.8170    0.0000 C   0  0  0  0  0  0  0  0  0  0  0  0
    5.4641    2.1830    0.0000 C   0  0  0  0  0  0  0  0  0  0  0  0
    8.0622    4.6830    0.0000 C   0  0  0  0  0  0  0  0  0  0  0  0
    8.9282    3.1830    0.0000 C   0  0  0  0  0  0  0  0  0  0  0  0
    8.9282    5.1830    0.0000 C   0  0  0  0  0  0  0  0  0  0  0  0
    9.7942    3.6830    0.0000 C   0  0  0  0  0  0  0  0  0  0  0  0
    9.7942    4.6830    0.0000 C   0  0  0  0  0  0  0  0  0  0  0  0
    7.4082   -1.3996    0.0000 H   0  0  0  0  0  0  0  0  0  0  0  0
    7.8067   -0.7093    0.0000 H   0  0  0  0  0  0  0  0  0  0  0  0
    6.5422   -2.8996    0.0000 H   0  0  0  0  0  0  0  0  0  0  0  0
    6.9407   -2.2093    0.0000 H   0  0  0  0  0  0  0  0  0  0  0  0
    5.7932   -1.0070    0.0000 H   0  0  0  0  0  0  0  0  0  0  0  0
    5.7932    0.3730    0.0000 H   0  0  0  0  0  0  0  0  0  0  0  0
    4.5981   -1.6970    0.0000 H   0  0  0  0  0  0  0  0  0  0  0  0
    6.0010   -4.1270    0.0000 H   0  0  0  0  0  0  0  0  0  0  0  0
    3.1951   -2.5070    0.0000 H   0  0  0  0  0  0  0  0  0  0  0  0
    4.5981   -4.9370    0.0000 H   0  0  0  0  0  0  0  0  0  0  0  0
    6.6592    3.4930    0.0000 H   0  0  0  0  0  0  0  0  0  0  0  0
    1.6900   -4.2800    0.0000 H   0  0  0  0  0  0  0  0  0  0  0  0
    1.4631   -5.1270    0.0000 H   0  0  0  0  0  0  0  0  0  0  0  0
    2.3100   -5.3539    0.0000 H   0  0  0  0  0  0  0  0  0  0  0  0
    8.9282    2.5630    0.0000 H   0  0  0  0  0  0  0  0  0  0  0  0
    8.9282    5.8030    0.0000 H   0  0  0  0  0  0  0  0  0  0  0  0
   10.3312    3.3730    0.0000 H   0  0  0  0  0  0  0  0  0  0  0  0
    4.0611    1.9930    0.0000 H   0  0  0  0  0  0  0  0  0  0  0  0
  1 33  1  0  0  0  0
  2  6  2  0  0  0  0
  2  7  2  0  0  0  0
  2 19  1  0  0  0  0
  2 27  1  0  0  0  0
  3 20  1  0  0  0  0
  4 23  1  0  0  0  0
  5 29  1  0  0  0  0
  8 28  1  0  0  0  0
  8 51  1  0  0  0  0
  9 28  2  0  0  0  0
 10 12  1  0  0  0  0
 10 13  1  0  0  0  0
 10 38  1  0  0  0  0
 11 17  1  0  0  0  0
 11 26  1  0  0  0  0
 11 44  1  0  0  0  0
 12 14  1  0  0  0  0
 12 34  1  0  0  0  0
 12 35  1  0  0  0  0
 13 15  1  0  0  0  0
 13 36  1  0  0  0  0
 13 37  1  0  0  0  0
 14 16  2  0  0  0  0
 14 20  1  0  0  0  0
 15 21  2  0  0  0  0
 15 22  1  0  0  0  0
 16 18  1  0  0  0  0
 16 39  1  0  0  0  0
 17 18  2  0  0  0  0
 17 23  1  0  0  0  0
 18 28  1  0  0  0  0
 19 24  2  0  0  0  0
 19 25  1  0  0  0  0
 20 23  2  0  0  0  0
 21 24  1  0  0  0  0
 21 40  1  0  0  0  0
 22 25  2  0  0  0  0
 22 41  1  0  0  0  0
 24 42  1  0  0  0  0
 25 43  1  0  0  0  0
 26 29  2  0  0  0  0
 26 30  1  0  0  0  0
 27 45  1  0  0  0  0
 27 46  1  0  0  0  0
 27 47  1  0  0  0  0
 29 31  1  0  0  0  0
 30 32  2  0  0  0  0
 30 48  1  0  0  0  0
 31 33  2  0  0  0  0
 31 49  1  0  0  0  0
 32 33  1  0  0  0  0
 32 50  1  0  0  0  0
M  END
> <PUBCHEM_COMPOUND_CID>
44570553

> <PUBCHEM_COMPOUND_CANONICALIZED>
1

> <PUBCHEM_CACTVS_COMPLEXITY>
763

> <PUBCHEM_CACTVS_HBOND_ACCEPTOR>
9

> <PUBCHEM_CACTVS_HBOND_DONOR>
3

> <PUBCHEM_CACTVS_ROTATABLE_BOND>
8

> <PUBCHEM_CACTVS_SUBSKEYS>
AAADceB7OYBAAgAAAAAAAAAAAAAAAAAAAAAwYMAAAAAAAAABUAAAHwQwCAAADAjD2AyyyYLAAgqIAiTSSHDCAAAlChAIiJkIbMgIJnrglZGEcYhm0AHI2ceY2WKOGAACAAACAAAwAAQAAAQAAAAAAAAAAA==

> <PUBCHEM_IUPAC_OPENEYE_NAME>
3,4-difluoro-2-(2-fluoro-4-iodo-anilino)-5-[[(4-methylsulfonylphenyl)methylamino]methyl]benzoic acid

> <PUBCHEM_IUPAC_CAS_NAME>
3,4-difluoro-2-(2-fluoro-4-iodoanilino)-5-[[(4-methylsulfonylphenyl)methylamino]methyl]benzoic acid

> <PUBCHEM_IUPAC_NAME_MARKUP>
3,4-difluoro-2-(2-fluoro-4-iodoanilino)-5-[[(4-methylsulfonylphenyl)methylamino]methyl]benzoic acid

> <PUBCHEM_IUPAC_NAME>
3,4-difluoro-2-(2-fluoro-4-iodoanilino)-5-[[(4-methylsulfonylphenyl)methylamino]methyl]benzoic acid

> <PUBCHEM_IUPAC_SYSTEMATIC_NAME>
3,4-bis(fluoranyl)-2-[(2-fluoranyl-4-iodanyl-phenyl)amino]-5-[[(4-methylsulfonylphenyl)methylamino]methyl]benzoic acid

> <PUBCHEM_IUPAC_TRADITIONAL_NAME>
3,4-difluoro-2-(2-fluoro-4-iodo-anilino)-5-[[(4-mesylbenzyl)amino]methyl]benzoic acid

> <PUBCHEM_IUPAC_INCHI>
InChI=1S/C22H18F3IN2O4S/c1-33(31,32)15-5-2-12(3-6-15)10-27-11-13-8-16(22(29)30)21(20(25)19(13)24)28-18-7-4-14(26)9-17(18)23/h2-9,27-28H,10-11H2,1H3,(H,29,30)

> <PUBCHEM_IUPAC_INCHIKEY>
FHSZADDMYZNJFY-UHFFFAOYSA-N

> <PUBCHEM_XLOGP3_AA>
2.3

> <PUBCHEM_EXACT_MASS>
589.99841

> <PUBCHEM_MOLECULAR_FORMULA>
C22H18F3IN2O4S

> <PUBCHEM_MOLECULAR_WEIGHT>
590.4

> <PUBCHEM_SMILES>
CS(=O)(=O)C1=CC=C(C=C1)CNCC2=CC(=C(C(=C2F)F)NC3=C(C=C(C=C3)I)F)C(=O)O

> <PUBCHEM_OPENEYE_CAN_SMILES>
CS(=O)(=O)C1=CC=C(C=C1)CNCC2=CC(=C(C(=C2F)F)NC3=C(C=C(C=C3)I)F)C(=O)O

> <PUBCHEM_OPENEYE_ISO_SMILES>
CS(=O)(=O)C1=CC=C(C=C1)CNCC2=CC(=C(C(=C2F)F)NC3=C(C=C(C=C3)I)F)C(=O)O

> <PUBCHEM_CACTVS_TPSA>
104

> <PUBCHEM_MONOISOTOPIC_WEIGHT>
589.99841

> <PUBCHEM_TOTAL_CHARGE>
0

> <PUBCHEM_HEAVY_ATOM_COUNT>
33

> <PUBCHEM_ATOM_DEF_STEREO_COUNT>
0

> <PUBCHEM_ATOM_UDEF_STEREO_COUNT>
0

> <PUBCHEM_BOND_DEF_STEREO_COUNT>
0

> <PUBCHEM_BOND_UDEF_STEREO_COUNT>
0

> <PUBCHEM_ISOTOPIC_ATOM_COUNT>
0

> <PUBCHEM_COMPONENT_COUNT>
1

> <PUBCHEM_CACTVS_TAUTO_COUNT>
-1

> <PUBCHEM_COORDINATE_TYPE>
1
5
255

> <PUBCHEM_BONDANNOTATIONS>
14  16  8
14  20  8
15  21  8
15  22  8
16  18  8
17  18  8
17  23  8
19  24  8
19  25  8
20  23  8
21  24  8
22  25  8
26  29  8
26  30  8
29  31  8
30  32  8
31  33  8
32  33  8

$$$$
