49830819
  -OEChem-03202500562D

 57 60  0     0  0  0  0  0  0999 V2000
    7.2641   -3.1900    0.0000 S   0  0  0  0  0  0  0  0  0  0  0  0
    6.7641   -4.0560    0.0000 O   0  0  0  0  0  0  0  0  0  0  0  0
    7.7641   -2.3240    0.0000 O   0  0  0  0  0  0  0  0  0  0  0  0
    6.3981    0.3100    0.0000 O   0  0  0  0  0  0  0  0  0  0  0  0
    4.6660    7.3100    0.0000 O   0  0  0  0  0  0  0  0  0  0  0  0
    8.1301   -3.6900    0.0000 N   0  0  0  0  0  0  0  0  0  0  0  0
    4.6660    0.3100    0.0000 N   0  0  0  0  0  0  0  0  0  0  0  0
    5.5321    4.8100    0.0000 N   0  0  0  0  0  0  0  0  0  0  0  0
    5.5321    5.8100    0.0000 N   0  0  0  0  0  0  0  0  0  0  0  0
    9.8622   -6.6900    0.0000 N   0  0  0  0  0  0  0  0  0  0  0  0
    8.1301   -4.6900    0.0000 C   0  0  0  0  0  0  0  0  0  0  0  0
    8.9962   -5.1900    0.0000 C   0  0  0  0  0  0  0  0  0  0  0  0
    6.3981   -2.6900    0.0000 C   0  0  0  0  0  0  0  0  0  0  0  0
    3.8000    4.8100    0.0000 C   0  0  0  0  0  0  0  0  0  0  0  0
    4.6660    4.3100    0.0000 C   0  0  0  0  0  0  0  0  0  0  0  0
    6.3981   -1.6900    0.0000 C   0  0  0  0  0  0  0  0  0  0  0  0
    4.6660    3.3100    0.0000 C   0  0  0  0  0  0  0  0  0  0  0  0
    5.5321   -1.1900    0.0000 C   0  0  0  0  0  0  0  0  0  0  0  0
    8.9962   -6.1900    0.0000 C   0  0  0  0  0  0  0  0  0  0  0  0
    3.8000    5.8100    0.0000 C   0  0  0  0  0  0  0  0  0  0  0  0
    5.5321   -3.1900    0.0000 C   0  0  0  0  0  0  0  0  0  0  0  0
    4.6660    1.3100    0.0000 C   0  0  0  0  0  0  0  0  0  0  0  0
    4.6660   -1.6900    0.0000 C   0  0  0  0  0  0  0  0  0  0  0  0
    3.8000    2.8100    0.0000 C   0  0  0  0  0  0  0  0  0  0  0  0
    5.5321    2.8100    0.0000 C   0  0  0  0  0  0  0  0  0  0  0  0
    5.5321   -0.1900    0.0000 C   0  0  0  0  0  0  0  0  0  0  0  0
    4.6660   -2.6900    0.0000 C   0  0  0  0  0  0  0  0  0  0  0  0
    3.8000    1.8100    0.0000 C   0  0  0  0  0  0  0  0  0  0  0  0
    5.5321    1.8100    0.0000 C   0  0  0  0  0  0  0  0  0  0  0  0
    2.9061    4.2753    0.0000 C   0  0  0  0  0  0  0  0  0  0  0  0
    4.6660    6.3100    0.0000 C   0  0  0  0  0  0  0  0  0  0  0  0
    2.9061    6.3447    0.0000 C   0  0  0  0  0  0  0  0  0  0  0  0
    2.0000    4.7892    0.0000 C   0  0  0  0  0  0  0  0  0  0  0  0
    2.0000    5.8308    0.0000 C   0  0  0  0  0  0  0  0  0  0  0  0
    7.5196   -4.5823    0.0000 H   0  0  0  0  0  0  0  0  0  0  0  0
    7.9181   -5.2726    0.0000 H   0  0  0  0  0  0  0  0  0  0  0  0
    9.6067   -5.2977    0.0000 H   0  0  0  0  0  0  0  0  0  0  0  0
    9.2082   -4.6074    0.0000 H   0  0  0  0  0  0  0  0  0  0  0  0
    8.6671   -3.3800    0.0000 H   0  0  0  0  0  0  0  0  0  0  0  0
    6.9350   -1.3800    0.0000 H   0  0  0  0  0  0  0  0  0  0  0  0
    8.3856   -6.0823    0.0000 H   0  0  0  0  0  0  0  0  0  0  0  0
    8.7841   -6.7726    0.0000 H   0  0  0  0  0  0  0  0  0  0  0  0
    5.5321   -3.8100    0.0000 H   0  0  0  0  0  0  0  0  0  0  0  0
    4.1291   -1.3800    0.0000 H   0  0  0  0  0  0  0  0  0  0  0  0
    3.2631    3.1200    0.0000 H   0  0  0  0  0  0  0  0  0  0  0  0
    6.0690    3.1200    0.0000 H   0  0  0  0  0  0  0  0  0  0  0  0
    4.1291   -3.0000    0.0000 H   0  0  0  0  0  0  0  0  0  0  0  0
    3.2631    1.5000    0.0000 H   0  0  0  0  0  0  0  0  0  0  0  0
    6.0690    1.5000    0.0000 H   0  0  0  0  0  0  0  0  0  0  0  0
    4.1291   -0.0000    0.0000 H   0  0  0  0  0  0  0  0  0  0  0  0
    2.9132    3.6554    0.0000 H   0  0  0  0  0  0  0  0  0  0  0  0
    2.9132    6.9646    0.0000 H   0  0  0  0  0  0  0  0  0  0  0  0
    1.4643    4.4771    0.0000 H   0  0  0  0  0  0  0  0  0  0  0  0
    6.0690    6.1200    0.0000 H   0  0  0  0  0  0  0  0  0  0  0  0
    1.4643    6.1429    0.0000 H   0  0  0  0  0  0  0  0  0  0  0  0
    9.8622   -7.3100    0.0000 H   0  0  0  0  0  0  0  0  0  0  0  0
   10.3991   -6.3800    0.0000 H   0  0  0  0  0  0  0  0  0  0  0  0
  1  2  2  0  0  0  0
  1  3  2  0  0  0  0
  1  6  1  0  0  0  0
  1 13  1  0  0  0  0
  4 26  2  0  0  0  0
  5 31  2  0  0  0  0
  6 11  1  0  0  0  0
  6 39  1  0  0  0  0
  7 22  1  0  0  0  0
  7 26  1  0  0  0  0
  7 50  1  0  0  0  0
  8  9  1  0  0  0  0
  8 15  2  0  0  0  0
  9 31  1  0  0  0  0
  9 54  1  0  0  0  0
 10 19  1  0  0  0  0
 10 56  1  0  0  0  0
 10 57  1  0  0  0  0
 11 12  1  0  0  0  0
 11 35  1  0  0  0  0
 11 36  1  0  0  0  0
 12 19  1  0  0  0  0
 12 37  1  0  0  0  0
 12 38  1  0  0  0  0
 13 16  1  0  0  0  0
 13 21  2  0  0  0  0
 14 15  1  0  0  0  0
 14 20  1  0  0  0  0
 14 30  2  0  0  0  0
 15 17  1  0  0  0  0
 16 18  2  0  0  0  0
 16 40  1  0  0  0  0
 17 24  2  0  0  0  0
 17 25  1  0  0  0  0
 18 23  1  0  0  0  0
 18 26  1  0  0  0  0
 19 41  1  0  0  0  0
 19 42  1  0  0  0  0
 20 31  1  0  0  0  0
 20 32  2  0  0  0  0
 21 27  1  0  0  0  0
 21 43  1  0  0  0  0
 22 28  2  0  0  0  0
 22 29  1  0  0  0  0
 23 27  2  0  0  0  0
 23 44  1  0  0  0  0
 24 28  1  0  0  0  0
 24 45  1  0  0  0  0
 25 29  2  0  0  0  0
 25 46  1  0  0  0  0
 27 47  1  0  0  0  0
 28 48  1  0  0  0  0
 29 49  1  0  0  0  0
 30 33  1  0  0  0  0
 30 51  1  0  0  0  0
 32 34  1  0  0  0  0
 32 52  1  0  0  0  0
 33 34  2  0  0  0  0
 33 53  1  0  0  0  0
 34 55  1  0  0  0  0
M  END
> <PUBCHEM_COMPOUND_CID>
49830819

> <PUBCHEM_COMPOUND_CANONICALIZED>
1

> <PUBCHEM_CACTVS_COMPLEXITY>
863

> <PUBCHEM_CACTVS_HBOND_ACCEPTOR>
7

> <PUBCHEM_CACTVS_HBOND_DONOR>
4

> <PUBCHEM_CACTVS_ROTATABLE_BOND>
8

> <PUBCHEM_CACTVS_SUBSKEYS>
AAADceB7uABAAAAAAAAAAAAAAAAAAAAAAAAwYMEAAAAAAACBUAAAHgQYQAAADAjB2AQwwYLiAAKoAyVyUHDSABAlAgAaiJkgZNgIILLA1ZGEIQhgnADIyYcYiMCOiAAAgAAQAAAQAAEAACAAAAAAAAAAAA==

> <PUBCHEM_IUPAC_OPENEYE_NAME>
3-(3-aminopropylsulfamoyl)-N-[4-(4-oxo-3H-phthalazin-1-yl)phenyl]benzamide

> <PUBCHEM_IUPAC_CAS_NAME>
3-(3-aminopropylsulfamoyl)-N-[4-(4-oxo-3H-phthalazin-1-yl)phenyl]benzamide

> <PUBCHEM_IUPAC_NAME_MARKUP>
3-(3-aminopropylsulfamoyl)-<I>N</I>-[4-(4-oxo-3<I>H</I>-phthalazin-1-yl)phenyl]benzamide

> <PUBCHEM_IUPAC_NAME>
3-(3-aminopropylsulfamoyl)-N-[4-(4-oxo-3H-phthalazin-1-yl)phenyl]benzamide

> <PUBCHEM_IUPAC_SYSTEMATIC_NAME>
3-(3-azanylpropylsulfamoyl)-N-[4-(4-oxidanylidene-3H-phthalazin-1-yl)phenyl]benzamide

> <PUBCHEM_IUPAC_TRADITIONAL_NAME>
3-(3-aminopropylsulfamoyl)-N-[4-(4-keto-3H-phthalazin-1-yl)phenyl]benzamide

> <PUBCHEM_IUPAC_INCHI>
InChI=1S/C24H23N5O4S/c25-13-4-14-26-34(32,33)19-6-3-5-17(15-19)23(30)27-18-11-9-16(10-12-18)22-20-7-1-2-8-21(20)24(31)29-28-22/h1-3,5-12,15,26H,4,13-14,25H2,(H,27,30)(H,29,31)

> <PUBCHEM_IUPAC_INCHIKEY>
FUSGHFKTWQRWPV-UHFFFAOYSA-N

> <PUBCHEM_XLOGP3_AA>
1.9

> <PUBCHEM_EXACT_MASS>
477.14707541

> <PUBCHEM_MOLECULAR_FORMULA>
C24H23N5O4S

> <PUBCHEM_MOLECULAR_WEIGHT>
477.5

> <PUBCHEM_SMILES>
C1=CC=C2C(=C1)C(=NNC2=O)C3=CC=C(C=C3)NC(=O)C4=CC(=CC=C4)S(=O)(=O)NCCCN

> <PUBCHEM_OPENEYE_CAN_SMILES>
C1=CC=C2C(=C1)C(=NNC2=O)C3=CC=C(C=C3)NC(=O)C4=CC(=CC=C4)S(=O)(=O)NCCCN

> <PUBCHEM_OPENEYE_ISO_SMILES>
C1=CC=C2C(=C1)C(=NNC2=O)C3=CC=C(C=C3)NC(=O)C4=CC(=CC=C4)S(=O)(=O)NCCCN

> <PUBCHEM_CACTVS_TPSA>
151

> <PUBCHEM_MONOISOTOPIC_WEIGHT>
477.14707541

> <PUBCHEM_TOTAL_CHARGE>
0

> <PUBCHEM_HEAVY_ATOM_COUNT>
34

> <PUBCHEM_ATOM_DEF_STEREO_COUNT>
0

> <PUBCHEM_ATOM_UDEF_STEREO_COUNT>
0

> <PUBCHEM_BOND_DEF_STEREO_COUNT>
0

> <PUBCHEM_BOND_UDEF_STEREO_COUNT>
0

> <PUBCHEM_ISOTOPIC_ATOM_COUNT>
0

> <PUBCHEM_COMPONENT_COUNT>
1

> <PUBCHEM_CACTVS_TAUTO_COUNT>
-1

> <PUBCHEM_COORDINATE_TYPE>
1
5
255

> <PUBCHEM_BONDANNOTATIONS>
13  16  8
13  21  8
14  15  8
14  20  8
14  30  8
16  18  8
17  24  8
17  25  8
18  23  8
20  31  8
20  32  8
21  27  8
22  28  8
22  29  8
23  27  8
24  28  8
25  29  8
30  33  8
32  34  8
33  34  8
8  15  8
8  9  8
9  31  8

$$$$
