24905285
  -OEChem-03192523332D

 29 31  0     0  0  0  0  0  0999 V2000
    7.2566    1.3148    0.0000 O   0  0  0  0  0  0  0  0  0  0  0  0
    5.2619   -1.8034    0.0000 N   0  0  0  0  0  0  0  0  0  0  0  0
    4.6783   -2.6081    0.0000 N   0  0  0  0  0  0  0  0  0  0  0  0
    2.8660   -2.8034    0.0000 N   0  0  0  0  0  0  0  0  0  0  0  0
    2.0000   -1.3034    0.0000 N   0  0  0  0  0  0  0  0  0  0  0  0
    2.8660    0.1966    0.0000 N   0  0  0  0  0  0  0  0  0  0  0  0
    4.6783   -0.9987    0.0000 C   0  0  0  0  0  0  0  0  0  0  0  0
    4.9889   -0.0482    0.0000 C   0  0  0  0  0  0  0  0  0  0  0  0
    3.7320   -1.3034    0.0000 C   0  0  0  0  0  0  0  0  0  0  0  0
    3.7320   -2.3034    0.0000 C   0  0  0  0  0  0  0  0  0  0  0  0
    5.9674    0.1581    0.0000 C   0  0  0  0  0  0  0  0  0  0  0  0
    4.3211    0.6961    0.0000 C   0  0  0  0  0  0  0  0  0  0  0  0
    5.6103    1.8529    0.0000 C   0  0  0  0  0  0  0  0  0  0  0  0
    2.8660   -0.8034    0.0000 C   0  0  0  0  0  0  0  0  0  0  0  0
    6.2781    1.1086    0.0000 C   0  0  0  0  0  0  0  0  0  0  0  0
    4.6318    1.6467    0.0000 C   0  0  0  0  0  0  0  0  0  0  0  0
    5.9209    2.8034    0.0000 C   0  0  0  0  0  0  0  0  0  0  0  0
    2.0000   -2.3034    0.0000 C   0  0  0  0  0  0  0  0  0  0  0  0
    6.3815   -0.3034    0.0000 H   0  0  0  0  0  0  0  0  0  0  0  0
    5.8819   -1.8034    0.0000 H   0  0  0  0  0  0  0  0  0  0  0  0
    3.7144    0.5683    0.0000 H   0  0  0  0  0  0  0  0  0  0  0  0
    4.2177    2.1081    0.0000 H   0  0  0  0  0  0  0  0  0  0  0  0
    6.5102    2.6108    0.0000 H   0  0  0  0  0  0  0  0  0  0  0  0
    6.1135    3.3927    0.0000 H   0  0  0  0  0  0  0  0  0  0  0  0
    5.3316    2.9960    0.0000 H   0  0  0  0  0  0  0  0  0  0  0  0
    1.4631   -2.6134    0.0000 H   0  0  0  0  0  0  0  0  0  0  0  0
    2.3291    0.5066    0.0000 H   0  0  0  0  0  0  0  0  0  0  0  0
    3.4030    0.5066    0.0000 H   0  0  0  0  0  0  0  0  0  0  0  0
    7.6707    0.8533    0.0000 H   0  0  0  0  0  0  0  0  0  0  0  0
  1 15  1  0  0  0  0
  1 29  1  0  0  0  0
  2  3  1  0  0  0  0
  2  7  1  0  0  0  0
  2 20  1  0  0  0  0
  3 10  2  0  0  0  0
  4 10  1  0  0  0  0
  4 18  2  0  0  0  0
  5 14  2  0  0  0  0
  5 18  1  0  0  0  0
  6 14  1  0  0  0  0
  6 27  1  0  0  0  0
  6 28  1  0  0  0  0
  7  8  1  0  0  0  0
  7  9  2  0  0  0  0
  8 11  2  0  0  0  0
  8 12  1  0  0  0  0
  9 10  1  0  0  0  0
  9 14  1  0  0  0  0
 11 15  1  0  0  0  0
 11 19  1  0  0  0  0
 12 16  2  0  0  0  0
 12 21  1  0  0  0  0
 13 15  2  0  0  0  0
 13 16  1  0  0  0  0
 13 17  1  0  0  0  0
 16 22  1  0  0  0  0
 17 23  1  0  0  0  0
 17 24  1  0  0  0  0
 17 25  1  0  0  0  0
 18 26  1  0  0  0  0
M  END
> <PUBCHEM_COMPOUND_CID>
24905285

> <PUBCHEM_COMPOUND_CANONICALIZED>
1

> <PUBCHEM_CACTVS_COMPLEXITY>
302

> <PUBCHEM_CACTVS_HBOND_ACCEPTOR>
5

> <PUBCHEM_CACTVS_HBOND_DONOR>
3

> <PUBCHEM_CACTVS_ROTATABLE_BOND>
1

> <PUBCHEM_CACTVS_SUBSKEYS>
AAADccBzoAAAAAAAAAAAAAAAAAAAAWAAAAA8QAAAAAAAAFgB/AAAHgAYCAAADAyBnwQ3tt5rEgCiAyZjZACShCsxIKAd+SAuTJiILqLC2dOE9AhsyBNI2CewwPAOQAABAAAIAACAAAIAABAAAAAAAAAAAA==

> <PUBCHEM_IUPAC_OPENEYE_NAME>
5-(4-amino-2H-pyrazolo[3,4-d]pyrimidin-3-yl)-2-methyl-phenol

> <PUBCHEM_IUPAC_CAS_NAME>
5-(4-amino-2H-pyrazolo[3,4-d]pyrimidin-3-yl)-2-methylphenol

> <PUBCHEM_IUPAC_NAME_MARKUP>
5-(4-amino-2<I>H</I>-pyrazolo[3,4-d]pyrimidin-3-yl)-2-methylphenol

> <PUBCHEM_IUPAC_NAME>
5-(4-amino-2H-pyrazolo[3,4-d]pyrimidin-3-yl)-2-methylphenol

> <PUBCHEM_IUPAC_SYSTEMATIC_NAME>
5-(4-azanyl-2H-pyrazolo[3,4-d]pyrimidin-3-yl)-2-methyl-phenol

> <PUBCHEM_IUPAC_TRADITIONAL_NAME>
5-(4-amino-2H-pyrazolo[3,4-d]pyrimidin-3-yl)-2-methyl-phenol

> <PUBCHEM_IUPAC_INCHI>
InChI=1S/C12H11N5O/c1-6-2-3-7(4-8(6)18)10-9-11(13)14-5-15-12(9)17-16-10/h2-5,18H,1H3,(H3,13,14,15,16,17)

> <PUBCHEM_IUPAC_INCHIKEY>
ZTWYTYUOHYGWSG-UHFFFAOYSA-N

> <PUBCHEM_XLOGP3_AA>
1.5

> <PUBCHEM_EXACT_MASS>
241.09635999

> <PUBCHEM_MOLECULAR_FORMULA>
C12H11N5O

> <PUBCHEM_MOLECULAR_WEIGHT>
241.25

> <PUBCHEM_SMILES>
CC1=C(C=C(C=C1)C2=C3C(=NC=NC3=NN2)N)O

> <PUBCHEM_OPENEYE_CAN_SMILES>
CC1=C(C=C(C=C1)C2=C3C(=NC=NC3=NN2)N)O

> <PUBCHEM_OPENEYE_ISO_SMILES>
CC1=C(C=C(C=C1)C2=C3C(=NC=NC3=NN2)N)O

> <PUBCHEM_CACTVS_TPSA>
101

> <PUBCHEM_MONOISOTOPIC_WEIGHT>
241.09635999

> <PUBCHEM_TOTAL_CHARGE>
0

> <PUBCHEM_HEAVY_ATOM_COUNT>
18

> <PUBCHEM_ATOM_DEF_STEREO_COUNT>
0

> <PUBCHEM_ATOM_UDEF_STEREO_COUNT>
0

> <PUBCHEM_BOND_DEF_STEREO_COUNT>
0

> <PUBCHEM_BOND_UDEF_STEREO_COUNT>
0

> <PUBCHEM_ISOTOPIC_ATOM_COUNT>
0

> <PUBCHEM_COMPONENT_COUNT>
1

> <PUBCHEM_CACTVS_TAUTO_COUNT>
-1

> <PUBCHEM_COORDINATE_TYPE>
1
5
255

> <PUBCHEM_BONDANNOTATIONS>
11  15  8
12  16  8
13  15  8
13  16  8
2  3  8
2  7  8
3  10  8
4  10  8
4  18  8
5  14  8
5  18  8
7  9  8
8  11  8
8  12  8
9  10  8
9  14  8

$$$$
