23647319
  -OEChem-03202504482D

 39 42  0     0  0  0  0  0  0999 V2000
    2.0000    0.3851    0.0000 Cl  0  0  0  0  0  0  0  0  0  0  0  0
    3.0705   -2.9094    0.0000 F   0  0  0  0  0  0  0  0  0  0  0  0
    4.7111    2.4044    0.0000 O   0  0  0  0  0  0  0  0  0  0  0  0
    7.4137    0.9099    0.0000 N   0  0  0  0  0  0  0  0  0  0  0  0
    8.9436    0.4099    0.0000 N   0  0  0  0  0  0  0  0  0  0  0  0
    8.3600   -0.3948    0.0000 N   0  0  0  0  0  0  0  0  0  0  0  0
    3.2330    1.7463    0.0000 N   0  0  0  0  0  0  0  0  0  0  0  0
    8.6706    2.1651    0.0000 C   0  0  0  0  0  0  0  0  0  0  0  0
    8.3600    1.2146    0.0000 C   0  0  0  0  0  0  0  0  0  0  0  0
    7.4137   -0.0901    0.0000 C   0  0  0  0  0  0  0  0  0  0  0  0
    5.6817    0.9099    0.0000 C   0  0  0  0  0  0  0  0  0  0  0  0
    6.5477    1.4099    0.0000 C   0  0  0  0  0  0  0  0  0  0  0  0
    9.6491    2.3714    0.0000 C   0  0  0  0  0  0  0  0  0  0  0  0
    8.0028    2.9094    0.0000 C   0  0  0  0  0  0  0  0  0  0  0  0
    4.8157    1.4099    0.0000 C   0  0  0  0  0  0  0  0  0  0  0  0
    6.5477   -0.5901    0.0000 C   0  0  0  0  0  0  0  0  0  0  0  0
    5.6817   -0.0901    0.0000 C   0  0  0  0  0  0  0  0  0  0  0  0
    3.9021    1.0032    0.0000 C   0  0  0  0  0  0  0  0  0  0  0  0
    3.6942    0.0250    0.0000 C   0  0  0  0  0  0  0  0  0  0  0  0
    2.7431   -0.2840    0.0000 C   0  0  0  0  0  0  0  0  0  0  0  0
    4.4374   -0.6441    0.0000 C   0  0  0  0  0  0  0  0  0  0  0  0
    3.7330    2.6123    0.0000 C   0  0  0  0  0  0  0  0  0  0  0  0
    2.5352   -1.2622    0.0000 C   0  0  0  0  0  0  0  0  0  0  0  0
    4.2294   -1.6223    0.0000 C   0  0  0  0  0  0  0  0  0  0  0  0
    3.2784   -1.9313    0.0000 C   0  0  0  0  0  0  0  0  0  0  0  0
    8.8632    2.7545    0.0000 H   0  0  0  0  0  0  0  0  0  0  0  0
    6.5477    2.0299    0.0000 H   0  0  0  0  0  0  0  0  0  0  0  0
    9.7770    1.7647    0.0000 H   0  0  0  0  0  0  0  0  0  0  0  0
   10.2558    2.4992    0.0000 H   0  0  0  0  0  0  0  0  0  0  0  0
    9.5213    2.9780    0.0000 H   0  0  0  0  0  0  0  0  0  0  0  0
    8.4642    3.3235    0.0000 H   0  0  0  0  0  0  0  0  0  0  0  0
    7.5887    3.3709    0.0000 H   0  0  0  0  0  0  0  0  0  0  0  0
    7.5413    2.4954    0.0000 H   0  0  0  0  0  0  0  0  0  0  0  0
    6.5477   -1.2101    0.0000 H   0  0  0  0  0  0  0  0  0  0  0  0
    5.1448   -0.4001    0.0000 H   0  0  0  0  0  0  0  0  0  0  0  0
    5.0270   -0.4525    0.0000 H   0  0  0  0  0  0  0  0  0  0  0  0
    3.4808    3.1787    0.0000 H   0  0  0  0  0  0  0  0  0  0  0  0
    1.9456   -1.4538    0.0000 H   0  0  0  0  0  0  0  0  0  0  0  0
    4.6902   -2.0371    0.0000 H   0  0  0  0  0  0  0  0  0  0  0  0
  1 20  1  0  0  0  0
  2 25  1  0  0  0  0
  3 15  1  0  0  0  0
  3 22  1  0  0  0  0
  4  9  1  0  0  0  0
  4 10  1  0  0  0  0
  4 12  1  0  0  0  0
  5  6  1  0  0  0  0
  5  9  2  0  0  0  0
  6 10  2  0  0  0  0
  7 18  1  0  0  0  0
  7 22  2  0  0  0  0
  8  9  1  0  0  0  0
  8 13  1  0  0  0  0
  8 14  1  0  0  0  0
  8 26  1  0  0  0  0
 10 16  1  0  0  0  0
 11 12  2  0  0  0  0
 11 15  1  0  0  0  0
 11 17  1  0  0  0  0
 12 27  1  0  0  0  0
 13 28  1  0  0  0  0
 13 29  1  0  0  0  0
 13 30  1  0  0  0  0
 14 31  1  0  0  0  0
 14 32  1  0  0  0  0
 14 33  1  0  0  0  0
 15 18  2  0  0  0  0
 16 17  2  0  0  0  0
 16 34  1  0  0  0  0
 17 35  1  0  0  0  0
 18 19  1  0  0  0  0
 19 20  2  0  0  0  0
 19 21  1  0  0  0  0
 20 23  1  0  0  0  0
 21 24  2  0  0  0  0
 21 36  1  0  0  0  0
 22 37  1  0  0  0  0
 23 25  2  0  0  0  0
 23 38  1  0  0  0  0
 24 25  1  0  0  0  0
 24 39  1  0  0  0  0
M  END
> <PUBCHEM_COMPOUND_CID>
23647319

> <PUBCHEM_COMPOUND_CANONICALIZED>
1

> <PUBCHEM_CACTVS_COMPLEXITY>
470

> <PUBCHEM_CACTVS_HBOND_ACCEPTOR>
5

> <PUBCHEM_CACTVS_HBOND_DONOR>
0

> <PUBCHEM_CACTVS_ROTATABLE_BOND>
3

> <PUBCHEM_CACTVS_SUBSKEYS>
AAADccB7oQAEAAAAAAAAAAAAAAAAAWLAAAA8QAAAAAAAAFgB/AAAHwIIAAAADQ7Bny4/tJ8MHECqA7Z39ASSjCs/Z6Ad2CG9btiOLvrFv7uNsahmzAPY6eeY2eKOAAAAAAABAAAAAAAAAAIAAAAAAAAAAA==

> <PUBCHEM_IUPAC_OPENEYE_NAME>
4-(2-chloro-4-fluoro-phenyl)-5-(3-isopropyl-[1,2,4]triazolo[4,3-a]pyridin-6-yl)oxazole

> <PUBCHEM_IUPAC_CAS_NAME>
4-(2-chloro-4-fluorophenyl)-5-(3-propan-2-yl-[1,2,4]triazolo[4,3-a]pyridin-6-yl)oxazole

> <PUBCHEM_IUPAC_NAME_MARKUP>
4-(2-chloro-4-fluorophenyl)-5-(3-propan-2-yl-[1,2,4]triazolo[4,3-a]pyridin-6-yl)-1,3-oxazole

> <PUBCHEM_IUPAC_NAME>
4-(2-chloro-4-fluorophenyl)-5-(3-propan-2-yl-[1,2,4]triazolo[4,3-a]pyridin-6-yl)-1,3-oxazole

> <PUBCHEM_IUPAC_SYSTEMATIC_NAME>
4-(2-chloranyl-4-fluoranyl-phenyl)-5-(3-propan-2-yl-[1,2,4]triazolo[4,3-a]pyridin-6-yl)-1,3-oxazole

> <PUBCHEM_IUPAC_TRADITIONAL_NAME>
4-(2-chloro-4-fluoro-phenyl)-5-(3-isopropyl-[1,2,4]triazolo[4,3-a]pyridin-6-yl)oxazole

> <PUBCHEM_IUPAC_INCHI>
InChI=1S/C18H14ClFN4O/c1-10(2)18-23-22-15-6-3-11(8-24(15)18)17-16(21-9-25-17)13-5-4-12(20)7-14(13)19/h3-10H,1-2H3

> <PUBCHEM_IUPAC_INCHIKEY>
DSKANFBRGYWCHD-UHFFFAOYSA-N

> <PUBCHEM_XLOGP3_AA>
4.8

> <PUBCHEM_EXACT_MASS>
356.0840169

> <PUBCHEM_MOLECULAR_FORMULA>
C18H14ClFN4O

> <PUBCHEM_MOLECULAR_WEIGHT>
356.8

> <PUBCHEM_SMILES>
CC(C)C1=NN=C2N1C=C(C=C2)C3=C(N=CO3)C4=C(C=C(C=C4)F)Cl

> <PUBCHEM_OPENEYE_CAN_SMILES>
CC(C)C1=NN=C2N1C=C(C=C2)C3=C(N=CO3)C4=C(C=C(C=C4)F)Cl

> <PUBCHEM_OPENEYE_ISO_SMILES>
CC(C)C1=NN=C2N1C=C(C=C2)C3=C(N=CO3)C4=C(C=C(C=C4)F)Cl

> <PUBCHEM_CACTVS_TPSA>
56.2

> <PUBCHEM_MONOISOTOPIC_WEIGHT>
356.0840169

> <PUBCHEM_TOTAL_CHARGE>
0

> <PUBCHEM_HEAVY_ATOM_COUNT>
25

> <PUBCHEM_ATOM_DEF_STEREO_COUNT>
0

> <PUBCHEM_ATOM_UDEF_STEREO_COUNT>
0

> <PUBCHEM_BOND_DEF_STEREO_COUNT>
0

> <PUBCHEM_BOND_UDEF_STEREO_COUNT>
0

> <PUBCHEM_ISOTOPIC_ATOM_COUNT>
0

> <PUBCHEM_COMPONENT_COUNT>
1

> <PUBCHEM_CACTVS_TAUTO_COUNT>
-1

> <PUBCHEM_COORDINATE_TYPE>
1
5
255

> <PUBCHEM_BONDANNOTATIONS>
10  16  8
11  12  8
11  17  8
15  18  8
16  17  8
19  20  8
19  21  8
20  23  8
21  24  8
23  25  8
24  25  8
3  15  8
3  22  8
4  10  8
4  12  8
4  9  8
5  6  8
5  9  8
6  10  8
7  18  8
7  22  8

$$$$
