49831009
  -OEChem-03202503022D

 62 66  0     1  0  0  0  0  0999 V2000
   10.6603   -1.7500    0.0000 O   0  0  0  0  0  0  0  0  0  0  0  0
    7.1962   -1.7500    0.0000 N   0  0  0  0  0  0  0  0  0  0  0  0
    8.9282   -1.7500    0.0000 N   0  0  0  0  0  0  0  0  0  0  0  0
    5.4641   -2.7500    0.0000 N   0  0  0  0  0  0  0  0  0  0  0  0
    8.0622   -0.2500    0.0000 N   0  0  0  0  0  0  0  0  0  0  0  0
    8.9282    3.2500    0.0000 N   0  0  0  0  0  0  0  0  0  0  0  0
    5.4641   -1.7500    0.0000 C   0  0  3  0  0  0  0  0  0  0  0  0
    6.3301   -1.2500    0.0000 C   0  0  0  0  0  0  0  0  0  0  0  0
    4.5981   -1.2500    0.0000 C   0  0  0  0  0  0  0  0  0  0  0  0
    8.0622   -1.2500    0.0000 C   0  0  0  0  0  0  0  0  0  0  0  0
    9.7942   -0.2500    0.0000 C   0  0  0  0  0  0  0  0  0  0  0  0
    3.7320   -1.7500    0.0000 C   0  0  0  0  0  0  0  0  0  0  0  0
    8.9282    0.2500    0.0000 C   0  0  0  0  0  0  0  0  0  0  0  0
   10.6603    0.2500    0.0000 C   0  0  0  0  0  0  0  0  0  0  0  0
    9.7942   -1.2500    0.0000 C   0  0  0  0  0  0  0  0  0  0  0  0
   11.5263   -0.2500    0.0000 C   0  0  0  0  0  0  0  0  0  0  0  0
   12.3923    0.2500    0.0000 C   0  0  0  0  0  0  0  0  0  0  0  0
    8.9282    1.2500    0.0000 C   0  0  0  0  0  0  0  0  0  0  0  0
   10.6603    1.2500    0.0000 C   0  0  0  0  0  0  0  0  0  0  0  0
   12.3923    1.2500    0.0000 C   0  0  0  0  0  0  0  0  0  0  0  0
    8.9282   -2.7500    0.0000 C   0  0  0  0  0  0  0  0  0  0  0  0
    2.8660   -1.2500    0.0000 C   0  0  0  0  0  0  0  0  0  0  0  0
    3.7320   -2.7500    0.0000 C   0  0  0  0  0  0  0  0  0  0  0  0
   11.5263    1.7500    0.0000 C   0  0  0  0  0  0  0  0  0  0  0  0
   13.2862   -0.2847    0.0000 C   0  0  0  0  0  0  0  0  0  0  0  0
   13.2862    1.7847    0.0000 C   0  0  0  0  0  0  0  0  0  0  0  0
    2.0000   -1.7500    0.0000 C   0  0  0  0  0  0  0  0  0  0  0  0
    2.8660   -3.2500    0.0000 C   0  0  0  0  0  0  0  0  0  0  0  0
    8.0622    1.7500    0.0000 C   0  0  0  0  0  0  0  0  0  0  0  0
    9.7942    1.7500    0.0000 C   0  0  0  0  0  0  0  0  0  0  0  0
    2.0000   -2.7500    0.0000 C   0  0  0  0  0  0  0  0  0  0  0  0
   14.1923    0.2292    0.0000 C   0  0  0  0  0  0  0  0  0  0  0  0
   14.1923    1.2708    0.0000 C   0  0  0  0  0  0  0  0  0  0  0  0
    8.0622    2.7500    0.0000 C   0  0  0  0  0  0  0  0  0  0  0  0
    9.7942    2.7500    0.0000 C   0  0  0  0  0  0  0  0  0  0  0  0
    6.0010   -2.0600    0.0000 H   0  0  0  0  0  0  0  0  0  0  0  0
    6.7287   -0.7751    0.0000 H   0  0  0  0  0  0  0  0  0  0  0  0
    5.9316   -0.7751    0.0000 H   0  0  0  0  0  0  0  0  0  0  0  0
    4.9966   -0.7751    0.0000 H   0  0  0  0  0  0  0  0  0  0  0  0
    4.1996   -0.7751    0.0000 H   0  0  0  0  0  0  0  0  0  0  0  0
    7.1962   -2.3700    0.0000 H   0  0  0  0  0  0  0  0  0  0  0  0
    6.0010   -3.0600    0.0000 H   0  0  0  0  0  0  0  0  0  0  0  0
    4.9272   -3.0600    0.0000 H   0  0  0  0  0  0  0  0  0  0  0  0
   11.5263   -0.8700    0.0000 H   0  0  0  0  0  0  0  0  0  0  0  0
   10.1233    1.5600    0.0000 H   0  0  0  0  0  0  0  0  0  0  0  0
    8.3082   -2.7500    0.0000 H   0  0  0  0  0  0  0  0  0  0  0  0
    8.9282   -3.3700    0.0000 H   0  0  0  0  0  0  0  0  0  0  0  0
    9.5482   -2.7500    0.0000 H   0  0  0  0  0  0  0  0  0  0  0  0
    2.8660   -0.6300    0.0000 H   0  0  0  0  0  0  0  0  0  0  0  0
    4.2690   -3.0600    0.0000 H   0  0  0  0  0  0  0  0  0  0  0  0
   11.5263    2.3700    0.0000 H   0  0  0  0  0  0  0  0  0  0  0  0
   13.2791   -0.9046    0.0000 H   0  0  0  0  0  0  0  0  0  0  0  0
   13.2791    2.4046    0.0000 H   0  0  0  0  0  0  0  0  0  0  0  0
    1.4631   -1.4400    0.0000 H   0  0  0  0  0  0  0  0  0  0  0  0
    2.8660   -3.8700    0.0000 H   0  0  0  0  0  0  0  0  0  0  0  0
    7.5252    1.4400    0.0000 H   0  0  0  0  0  0  0  0  0  0  0  0
   10.3312    1.4400    0.0000 H   0  0  0  0  0  0  0  0  0  0  0  0
    1.4631   -3.0600    0.0000 H   0  0  0  0  0  0  0  0  0  0  0  0
   14.7281   -0.0829    0.0000 H   0  0  0  0  0  0  0  0  0  0  0  0
   14.7281    1.5829    0.0000 H   0  0  0  0  0  0  0  0  0  0  0  0
    7.5252    3.0600    0.0000 H   0  0  0  0  0  0  0  0  0  0  0  0
   10.3312    3.0600    0.0000 H   0  0  0  0  0  0  0  0  0  0  0  0
  1 15  2  0  0  0  0
  2  8  1  0  0  0  0
  2 10  1  0  0  0  0
  2 41  1  0  0  0  0
  3 10  1  0  0  0  0
  3 15  1  0  0  0  0
  3 21  1  0  0  0  0
  4  7  1  0  0  0  0
  4 42  1  0  0  0  0
  4 43  1  0  0  0  0
  5 10  2  0  0  0  0
  5 13  1  0  0  0  0
  6 34  2  0  0  0  0
  6 35  1  0  0  0  0
  7  8  1  0  0  0  0
  7  9  1  0  0  0  0
  7 36  1  0  0  0  0
  8 37  1  0  0  0  0
  8 38  1  0  0  0  0
  9 12  1  0  0  0  0
  9 39  1  0  0  0  0
  9 40  1  0  0  0  0
 11 13  2  0  0  0  0
 11 14  1  0  0  0  0
 11 15  1  0  0  0  0
 12 22  2  0  0  0  0
 12 23  1  0  0  0  0
 13 18  1  0  0  0  0
 14 16  2  0  0  0  0
 14 19  1  0  0  0  0
 16 17  1  0  0  0  0
 16 44  1  0  0  0  0
 17 20  1  0  0  0  0
 17 25  2  0  0  0  0
 18 29  2  0  0  0  0
 18 30  1  0  0  0  0
 19 24  2  0  0  0  0
 19 45  1  0  0  0  0
 20 24  1  0  0  0  0
 20 26  2  0  0  0  0
 21 46  1  0  0  0  0
 21 47  1  0  0  0  0
 21 48  1  0  0  0  0
 22 27  1  0  0  0  0
 22 49  1  0  0  0  0
 23 28  2  0  0  0  0
 23 50  1  0  0  0  0
 24 51  1  0  0  0  0
 25 32  1  0  0  0  0
 25 52  1  0  0  0  0
 26 33  1  0  0  0  0
 26 53  1  0  0  0  0
 27 31  2  0  0  0  0
 27 54  1  0  0  0  0
 28 31  1  0  0  0  0
 28 55  1  0  0  0  0
 29 34  1  0  0  0  0
 29 56  1  0  0  0  0
 30 35  2  0  0  0  0
 30 57  1  0  0  0  0
 31 58  1  0  0  0  0
 32 33  2  0  0  0  0
 32 59  1  0  0  0  0
 33 60  1  0  0  0  0
 34 61  1  0  0  0  0
 35 62  1  0  0  0  0
M  END
> <PUBCHEM_COMPOUND_CID>
49831009

> <PUBCHEM_COMPOUND_CANONICALIZED>
1

> <PUBCHEM_CACTVS_COMPLEXITY>
795

> <PUBCHEM_CACTVS_HBOND_ACCEPTOR>
4

> <PUBCHEM_CACTVS_HBOND_DONOR>
2

> <PUBCHEM_CACTVS_ROTATABLE_BOND>
7

> <PUBCHEM_CACTVS_SUBSKEYS>
AAADceB7oAAAAAAAAAAAAAAAAAAAAAAAAAA8YMECAAAAAADB1AAAHgAQAAAADCjBmgQ/gNPIEACoAjV3dACCgCExAiAJ2KE4ZNiIYHLAnZGUIAhokwLIyUcYiMCOwAACAAAQAACAAAQAACAAAAAAAAAAAA==

> <PUBCHEM_IUPAC_OPENEYE_NAME>
2-[(2-amino-3-phenyl-propyl)amino]-3-methyl-5-(2-naphthyl)-6-(4-pyridyl)pyrimidin-4-one

> <PUBCHEM_IUPAC_CAS_NAME>
2-[(2-amino-3-phenylpropyl)amino]-3-methyl-5-(2-naphthalenyl)-6-pyridin-4-yl-4-pyrimidinone

> <PUBCHEM_IUPAC_NAME_MARKUP>
2-[(2-amino-3-phenylpropyl)amino]-3-methyl-5-naphthalen-2-yl-6-pyridin-4-ylpyrimidin-4-one

> <PUBCHEM_IUPAC_NAME>
2-[(2-amino-3-phenylpropyl)amino]-3-methyl-5-naphthalen-2-yl-6-pyridin-4-ylpyrimidin-4-one

> <PUBCHEM_IUPAC_SYSTEMATIC_NAME>
2-[(2-azanyl-3-phenyl-propyl)amino]-3-methyl-5-naphthalen-2-yl-6-pyridin-4-yl-pyrimidin-4-one

> <PUBCHEM_IUPAC_TRADITIONAL_NAME>
2-[(2-amino-3-phenyl-propyl)amino]-3-methyl-5-(2-naphthyl)-6-(4-pyridyl)pyrimidin-4-one

> <PUBCHEM_IUPAC_INCHI>
InChI=1S/C29H27N5O/c1-34-28(35)26(24-12-11-21-9-5-6-10-23(21)18-24)27(22-13-15-31-16-14-22)33-29(34)32-19-25(30)17-20-7-3-2-4-8-20/h2-16,18,25H,17,19,30H2,1H3,(H,32,33)

> <PUBCHEM_IUPAC_INCHIKEY>
RQVKVJIRFKVPBF-UHFFFAOYSA-N

> <PUBCHEM_XLOGP3_AA>
3.8

> <PUBCHEM_EXACT_MASS>
461.22156050

> <PUBCHEM_MOLECULAR_FORMULA>
C29H27N5O

> <PUBCHEM_MOLECULAR_WEIGHT>
461.6

> <PUBCHEM_SMILES>
CN1C(=O)C(=C(N=C1NCC(CC2=CC=CC=C2)N)C3=CC=NC=C3)C4=CC5=CC=CC=C5C=C4

> <PUBCHEM_OPENEYE_CAN_SMILES>
CN1C(=O)C(=C(N=C1NCC(CC2=CC=CC=C2)N)C3=CC=NC=C3)C4=CC5=CC=CC=C5C=C4

> <PUBCHEM_OPENEYE_ISO_SMILES>
CN1C(=O)C(=C(N=C1NCC(CC2=CC=CC=C2)N)C3=CC=NC=C3)C4=CC5=CC=CC=C5C=C4

> <PUBCHEM_CACTVS_TPSA>
83.6

> <PUBCHEM_MONOISOTOPIC_WEIGHT>
461.22156050

> <PUBCHEM_TOTAL_CHARGE>
0

> <PUBCHEM_HEAVY_ATOM_COUNT>
35

> <PUBCHEM_ATOM_DEF_STEREO_COUNT>
0

> <PUBCHEM_ATOM_UDEF_STEREO_COUNT>
1

> <PUBCHEM_BOND_DEF_STEREO_COUNT>
0

> <PUBCHEM_BOND_UDEF_STEREO_COUNT>
0

> <PUBCHEM_ISOTOPIC_ATOM_COUNT>
0

> <PUBCHEM_COMPONENT_COUNT>
1

> <PUBCHEM_CACTVS_TAUTO_COUNT>
-1

> <PUBCHEM_COORDINATE_TYPE>
1
5
255

> <PUBCHEM_BONDANNOTATIONS>
11  13  8
11  15  8
12  22  8
12  23  8
14  16  8
14  19  8
16  17  8
17  20  8
17  25  8
18  29  8
18  30  8
19  24  8
20  24  8
20  26  8
22  27  8
23  28  8
25  32  8
26  33  8
27  31  8
28  31  8
29  34  8
3  10  8
3  15  8
30  35  8
32  33  8
7  4  3
5  10  8
5  13  8
6  34  8
6  35  8

$$$$
