4714238
  -OEChem-03202502172D

 42 44  0     1  0  0  0  0  0999 V2000
    2.0000   -2.5950    0.0000 Cl  0  0  0  0  0  0  0  0  0  0  0  0
    3.7320   -3.5950    0.0000 O   0  0  0  0  0  0  0  0  0  0  0  0
    2.8660    0.9050    0.0000 N   0  0  3  0  0  0  0  0  0  0  0  0
    5.4920   -2.6297    0.0000 N   0  0  0  0  0  0  0  0  0  0  0  0
    2.8660    1.9050    0.0000 C   0  0  0  0  0  0  0  0  0  0  0  0
    3.7320    2.4050    0.0000 C   0  0  0  0  0  0  0  0  0  0  0  0
    2.0000    2.4050    0.0000 C   0  0  0  0  0  0  0  0  0  0  0  0
    3.7320    3.4050    0.0000 C   0  0  0  0  0  0  0  0  0  0  0  0
    2.0000    3.4050    0.0000 C   0  0  0  0  0  0  0  0  0  0  0  0
    2.8660    3.9050    0.0000 C   0  0  0  0  0  0  0  0  0  0  0  0
    3.7320    0.4050    0.0000 C   0  0  0  0  0  0  0  0  0  0  0  0
    2.0000    0.4050    0.0000 C   0  0  0  0  0  0  0  0  0  0  0  0
    3.7320   -0.5950    0.0000 C   0  0  0  0  0  0  0  0  0  0  0  0
    4.5981   -1.0950    0.0000 C   0  0  0  0  0  0  0  0  0  0  0  0
    2.8660   -1.0950    0.0000 C   0  0  0  0  0  0  0  0  0  0  0  0
    4.5981   -2.0950    0.0000 C   0  0  0  0  0  0  0  0  0  0  0  0
    2.8660   -2.0950    0.0000 C   0  0  0  0  0  0  0  0  0  0  0  0
    5.4920   -0.5603    0.0000 C   0  0  0  0  0  0  0  0  0  0  0  0
    3.7320   -2.5950    0.0000 C   0  0  0  0  0  0  0  0  0  0  0  0
    6.3981   -1.0742    0.0000 C   0  0  0  0  0  0  0  0  0  0  0  0
    6.3981   -2.1158    0.0000 C   0  0  0  0  0  0  0  0  0  0  0  0
    3.4030    1.5950    0.0000 H   0  0  0  0  0  0  0  0  0  0  0  0
    3.9441    1.8224    0.0000 H   0  0  0  0  0  0  0  0  0  0  0  0
    4.3426    2.5127    0.0000 H   0  0  0  0  0  0  0  0  0  0  0  0
    1.3894    2.5127    0.0000 H   0  0  0  0  0  0  0  0  0  0  0  0
    1.7880    1.8224    0.0000 H   0  0  0  0  0  0  0  0  0  0  0  0
    4.3426    3.2973    0.0000 H   0  0  0  0  0  0  0  0  0  0  0  0
    3.9441    3.9876    0.0000 H   0  0  0  0  0  0  0  0  0  0  0  0
    1.7880    3.9876    0.0000 H   0  0  0  0  0  0  0  0  0  0  0  0
    1.3894    3.2973    0.0000 H   0  0  0  0  0  0  0  0  0  0  0  0
    3.2646    4.3800    0.0000 H   0  0  0  0  0  0  0  0  0  0  0  0
    2.4675    4.3800    0.0000 H   0  0  0  0  0  0  0  0  0  0  0  0
    4.3426    0.2973    0.0000 H   0  0  0  0  0  0  0  0  0  0  0  0
    3.9441    0.9876    0.0000 H   0  0  0  0  0  0  0  0  0  0  0  0
    1.6900    0.9419    0.0000 H   0  0  0  0  0  0  0  0  0  0  0  0
    1.4631    0.0950    0.0000 H   0  0  0  0  0  0  0  0  0  0  0  0
    2.3100   -0.1319    0.0000 H   0  0  0  0  0  0  0  0  0  0  0  0
    2.3291   -0.7850    0.0000 H   0  0  0  0  0  0  0  0  0  0  0  0
    5.4848    0.0596    0.0000 H   0  0  0  0  0  0  0  0  0  0  0  0
    6.9338   -0.7621    0.0000 H   0  0  0  0  0  0  0  0  0  0  0  0
    6.9338   -2.4279    0.0000 H   0  0  0  0  0  0  0  0  0  0  0  0
    3.1951   -3.9050    0.0000 H   0  0  0  0  0  0  0  0  0  0  0  0
  1 17  1  0  0  0  0
  2 19  1  0  0  0  0
  2 42  1  0  0  0  0
  3  5  1  0  0  0  0
  3 11  1  0  0  0  0
  3 12  1  0  0  0  0
  4 16  1  0  0  0  0
  4 21  2  0  0  0  0
  5  6  1  0  0  0  0
  5  7  1  0  0  0  0
  5 22  1  0  0  0  0
  6  8  1  0  0  0  0
  6 23  1  0  0  0  0
  6 24  1  0  0  0  0
  7  9  1  0  0  0  0
  7 25  1  0  0  0  0
  7 26  1  0  0  0  0
  8 10  1  0  0  0  0
  8 27  1  0  0  0  0
  8 28  1  0  0  0  0
  9 10  1  0  0  0  0
  9 29  1  0  0  0  0
  9 30  1  0  0  0  0
 10 31  1  0  0  0  0
 10 32  1  0  0  0  0
 11 13  1  0  0  0  0
 11 33  1  0  0  0  0
 11 34  1  0  0  0  0
 12 35  1  0  0  0  0
 12 36  1  0  0  0  0
 12 37  1  0  0  0  0
 13 14  1  0  0  0  0
 13 15  2  0  0  0  0
 14 16  2  0  0  0  0
 14 18  1  0  0  0  0
 15 17  1  0  0  0  0
 15 38  1  0  0  0  0
 16 19  1  0  0  0  0
 17 19  2  0  0  0  0
 18 20  2  0  0  0  0
 18 39  1  0  0  0  0
 20 21  1  0  0  0  0
 20 40  1  0  0  0  0
 21 41  1  0  0  0  0
M  END
> <PUBCHEM_COMPOUND_CID>
4714238

> <PUBCHEM_COMPOUND_CANONICALIZED>
1

> <PUBCHEM_CACTVS_COMPLEXITY>
335

> <PUBCHEM_CACTVS_HBOND_ACCEPTOR>
3

> <PUBCHEM_CACTVS_HBOND_DONOR>
1

> <PUBCHEM_CACTVS_ROTATABLE_BOND>
3

> <PUBCHEM_CACTVS_SUBSKEYS>
AAADceB7IAAEAAAAAAAAAAAAAAAAAAAAAAA8YIAAAAAAAACx8AAAHgIACAAADC7BniQ+xvMIEgCgAzRnRASCgCAxZ2AI2CA9b5gKJuLTk5OEcAhkwBHY2AeQ0LIOpAABYAISGABIAALABCQwAAAAAAAAAA==

> <PUBCHEM_IUPAC_OPENEYE_NAME>
7-chloro-5-[[cyclohexyl(methyl)amino]methyl]quinolin-8-ol

> <PUBCHEM_IUPAC_CAS_NAME>
7-chloro-5-[[cyclohexyl(methyl)amino]methyl]-8-quinolinol

> <PUBCHEM_IUPAC_NAME_MARKUP>
7-chloro-5-[[cyclohexyl(methyl)amino]methyl]quinolin-8-ol

> <PUBCHEM_IUPAC_NAME>
7-chloro-5-[[cyclohexyl(methyl)amino]methyl]quinolin-8-ol

> <PUBCHEM_IUPAC_SYSTEMATIC_NAME>
7-chloranyl-5-[[cyclohexyl(methyl)amino]methyl]quinolin-8-ol

> <PUBCHEM_IUPAC_TRADITIONAL_NAME>
7-chloro-5-[[cyclohexyl(methyl)amino]methyl]quinolin-8-ol

> <PUBCHEM_IUPAC_INCHI>
InChI=1S/C17H21ClN2O/c1-20(13-6-3-2-4-7-13)11-12-10-15(18)17(21)16-14(12)8-5-9-19-16/h5,8-10,13,21H,2-4,6-7,11H2,1H3

> <PUBCHEM_IUPAC_INCHIKEY>
JHYHWHUTTXJICB-UHFFFAOYSA-N

> <PUBCHEM_XLOGP3_AA>
4.1

> <PUBCHEM_EXACT_MASS>
304.1342410

> <PUBCHEM_MOLECULAR_FORMULA>
C17H21ClN2O

> <PUBCHEM_MOLECULAR_WEIGHT>
304.8

> <PUBCHEM_SMILES>
CN(CC1=CC(=C(C2=C1C=CC=N2)O)Cl)C3CCCCC3

> <PUBCHEM_OPENEYE_CAN_SMILES>
CN(CC1=CC(=C(C2=C1C=CC=N2)O)Cl)C3CCCCC3

> <PUBCHEM_OPENEYE_ISO_SMILES>
CN(CC1=CC(=C(C2=C1C=CC=N2)O)Cl)C3CCCCC3

> <PUBCHEM_CACTVS_TPSA>
36.4

> <PUBCHEM_MONOISOTOPIC_WEIGHT>
304.1342410

> <PUBCHEM_TOTAL_CHARGE>
0

> <PUBCHEM_HEAVY_ATOM_COUNT>
21

> <PUBCHEM_ATOM_DEF_STEREO_COUNT>
0

> <PUBCHEM_ATOM_UDEF_STEREO_COUNT>
0

> <PUBCHEM_BOND_DEF_STEREO_COUNT>
0

> <PUBCHEM_BOND_UDEF_STEREO_COUNT>
0

> <PUBCHEM_ISOTOPIC_ATOM_COUNT>
0

> <PUBCHEM_COMPONENT_COUNT>
1

> <PUBCHEM_CACTVS_TAUTO_COUNT>
-1

> <PUBCHEM_COORDINATE_TYPE>
1
5
255

> <PUBCHEM_BONDANNOTATIONS>
13  14  8
13  15  8
14  16  8
14  18  8
15  17  8
16  19  8
17  19  8
18  20  8
20  21  8
4  16  8
4  21  8

$$$$
