23647348
  -OEChem-03202504462D

 40 43  0     0  0  0  0  0  0999 V2000
    2.0000    0.0761    0.0000 F   0  0  0  0  0  0  0  0  0  0  0  0
    4.9726   -2.6004    0.0000 F   0  0  0  0  0  0  0  0  0  0  0  0
    7.4137    0.6009    0.0000 N   0  0  0  0  0  0  0  0  0  0  0  0
    8.9436    0.1009    0.0000 N   0  0  0  0  0  0  0  0  0  0  0  0
    8.3600   -0.7039    0.0000 N   0  0  0  0  0  0  0  0  0  0  0  0
    3.2330    1.4373    0.0000 N   0  0  0  0  0  0  0  0  0  0  0  0
    3.7330    2.3033    0.0000 N   0  0  0  0  0  0  0  0  0  0  0  0
    8.6706    1.8561    0.0000 C   0  0  0  0  0  0  0  0  0  0  0  0
    8.3600    0.9056    0.0000 C   0  0  0  0  0  0  0  0  0  0  0  0
    5.6817    0.6009    0.0000 C   0  0  0  0  0  0  0  0  0  0  0  0
    7.4137   -0.3991    0.0000 C   0  0  0  0  0  0  0  0  0  0  0  0
    6.5477    1.1009    0.0000 C   0  0  0  0  0  0  0  0  0  0  0  0
    4.8157    1.1009    0.0000 C   0  0  0  0  0  0  0  0  0  0  0  0
    9.6491    2.0623    0.0000 C   0  0  0  0  0  0  0  0  0  0  0  0
    8.0028    2.6004    0.0000 C   0  0  0  0  0  0  0  0  0  0  0  0
    3.9021    0.6941    0.0000 C   0  0  0  0  0  0  0  0  0  0  0  0
    5.6817   -0.3991    0.0000 C   0  0  0  0  0  0  0  0  0  0  0  0
    6.5477   -0.8991    0.0000 C   0  0  0  0  0  0  0  0  0  0  0  0
    3.6942   -0.2840    0.0000 C   0  0  0  0  0  0  0  0  0  0  0  0
    4.7111    2.0954    0.0000 C   0  0  0  0  0  0  0  0  0  0  0  0
    2.7431   -0.5930    0.0000 C   0  0  0  0  0  0  0  0  0  0  0  0
    4.4374   -0.9531    0.0000 C   0  0  0  0  0  0  0  0  0  0  0  0
    4.2294   -1.9313    0.0000 C   0  0  0  0  0  0  0  0  0  0  0  0
    2.5352   -1.5712    0.0000 C   0  0  0  0  0  0  0  0  0  0  0  0
    3.2784   -2.2403    0.0000 C   0  0  0  0  0  0  0  0  0  0  0  0
    8.8632    2.4454    0.0000 H   0  0  0  0  0  0  0  0  0  0  0  0
    6.5477    1.7209    0.0000 H   0  0  0  0  0  0  0  0  0  0  0  0
    9.7770    1.4557    0.0000 H   0  0  0  0  0  0  0  0  0  0  0  0
   10.2558    2.1902    0.0000 H   0  0  0  0  0  0  0  0  0  0  0  0
    9.5213    2.6690    0.0000 H   0  0  0  0  0  0  0  0  0  0  0  0
    8.4642    3.0145    0.0000 H   0  0  0  0  0  0  0  0  0  0  0  0
    7.5887    3.0619    0.0000 H   0  0  0  0  0  0  0  0  0  0  0  0
    7.5413    2.1864    0.0000 H   0  0  0  0  0  0  0  0  0  0  0  0
    5.1448   -0.7091    0.0000 H   0  0  0  0  0  0  0  0  0  0  0  0
    6.5477   -1.5191    0.0000 H   0  0  0  0  0  0  0  0  0  0  0  0
    5.1719    2.5102    0.0000 H   0  0  0  0  0  0  0  0  0  0  0  0
    2.6164    1.3725    0.0000 H   0  0  0  0  0  0  0  0  0  0  0  0
    5.0270   -0.7616    0.0000 H   0  0  0  0  0  0  0  0  0  0  0  0
    1.9456   -1.7628    0.0000 H   0  0  0  0  0  0  0  0  0  0  0  0
    3.1495   -2.8468    0.0000 H   0  0  0  0  0  0  0  0  0  0  0  0
  1 21  1  0  0  0  0
  2 23  1  0  0  0  0
  3  9  1  0  0  0  0
  3 11  1  0  0  0  0
  3 12  1  0  0  0  0
  4  5  1  0  0  0  0
  4  9  2  0  0  0  0
  5 11  2  0  0  0  0
  6  7  1  0  0  0  0
  6 16  1  0  0  0  0
  6 37  1  0  0  0  0
  7 20  2  0  0  0  0
  8  9  1  0  0  0  0
  8 14  1  0  0  0  0
  8 15  1  0  0  0  0
  8 26  1  0  0  0  0
 10 12  2  0  0  0  0
 10 13  1  0  0  0  0
 10 17  1  0  0  0  0
 11 18  1  0  0  0  0
 12 27  1  0  0  0  0
 13 16  2  0  0  0  0
 13 20  1  0  0  0  0
 14 28  1  0  0  0  0
 14 29  1  0  0  0  0
 14 30  1  0  0  0  0
 15 31  1  0  0  0  0
 15 32  1  0  0  0  0
 15 33  1  0  0  0  0
 16 19  1  0  0  0  0
 17 18  2  0  0  0  0
 17 34  1  0  0  0  0
 18 35  1  0  0  0  0
 19 21  2  0  0  0  0
 19 22  1  0  0  0  0
 20 36  1  0  0  0  0
 21 24  1  0  0  0  0
 22 23  2  0  0  0  0
 22 38  1  0  0  0  0
 23 25  1  0  0  0  0
 24 25  2  0  0  0  0
 24 39  1  0  0  0  0
 25 40  1  0  0  0  0
M  END
> <PUBCHEM_COMPOUND_CID>
23647348

> <PUBCHEM_COMPOUND_CANONICALIZED>
1

> <PUBCHEM_CACTVS_COMPLEXITY>
465

> <PUBCHEM_CACTVS_HBOND_ACCEPTOR>
5

> <PUBCHEM_CACTVS_HBOND_DONOR>
1

> <PUBCHEM_CACTVS_ROTATABLE_BOND>
3

> <PUBCHEM_CACTVS_SUBSKEYS>
AAADccB7gYAAAAAAAAAAAAAAAAAAAWLAAAA8QAAAAAAAAFgB/AAAHQAYAAAADQjBHww/sJ9vGACiAzZnZACShCsxgqAd+SA4ZJiIKOLA2dGEpAhgiALIyCcQgMAOgAAAAAAAAAAAAAAAAAAAAAAAAAAAAA==

> <PUBCHEM_IUPAC_OPENEYE_NAME>
6-[5-(2,5-difluorophenyl)-1H-pyrazol-4-yl]-3-isopropyl-[1,2,4]triazolo[4,3-a]pyridine

> <PUBCHEM_IUPAC_CAS_NAME>
6-[5-(2,5-difluorophenyl)-1H-pyrazol-4-yl]-3-propan-2-yl-[1,2,4]triazolo[4,3-a]pyridine

> <PUBCHEM_IUPAC_NAME_MARKUP>
6-[5-(2,5-difluorophenyl)-1<I>H</I>-pyrazol-4-yl]-3-propan-2-yl-[1,2,4]triazolo[4,3-a]pyridine

> <PUBCHEM_IUPAC_NAME>
6-[5-(2,5-difluorophenyl)-1H-pyrazol-4-yl]-3-propan-2-yl-[1,2,4]triazolo[4,3-a]pyridine

> <PUBCHEM_IUPAC_SYSTEMATIC_NAME>
6-[5-[2,5-bis(fluoranyl)phenyl]-1H-pyrazol-4-yl]-3-propan-2-yl-[1,2,4]triazolo[4,3-a]pyridine

> <PUBCHEM_IUPAC_TRADITIONAL_NAME>
6-[5-(2,5-difluorophenyl)-1H-pyrazol-4-yl]-3-isopropyl-[1,2,4]triazolo[4,3-a]pyridine

> <PUBCHEM_IUPAC_INCHI>
InChI=1S/C18H15F2N5/c1-10(2)18-24-22-16-6-3-11(9-25(16)18)14-8-21-23-17(14)13-7-12(19)4-5-15(13)20/h3-10H,1-2H3,(H,21,23)

> <PUBCHEM_IUPAC_INCHIKEY>
XQFBFBBFUGBKRH-UHFFFAOYSA-N

> <PUBCHEM_XLOGP3_AA>
4.1

> <PUBCHEM_EXACT_MASS>
339.12955182

> <PUBCHEM_MOLECULAR_FORMULA>
C18H15F2N5

> <PUBCHEM_MOLECULAR_WEIGHT>
339.3

> <PUBCHEM_SMILES>
CC(C)C1=NN=C2N1C=C(C=C2)C3=C(NN=C3)C4=C(C=CC(=C4)F)F

> <PUBCHEM_OPENEYE_CAN_SMILES>
CC(C)C1=NN=C2N1C=C(C=C2)C3=C(NN=C3)C4=C(C=CC(=C4)F)F

> <PUBCHEM_OPENEYE_ISO_SMILES>
CC(C)C1=NN=C2N1C=C(C=C2)C3=C(NN=C3)C4=C(C=CC(=C4)F)F

> <PUBCHEM_CACTVS_TPSA>
58.9

> <PUBCHEM_MONOISOTOPIC_WEIGHT>
339.12955182

> <PUBCHEM_TOTAL_CHARGE>
0

> <PUBCHEM_HEAVY_ATOM_COUNT>
25

> <PUBCHEM_ATOM_DEF_STEREO_COUNT>
0

> <PUBCHEM_ATOM_UDEF_STEREO_COUNT>
0

> <PUBCHEM_BOND_DEF_STEREO_COUNT>
0

> <PUBCHEM_BOND_UDEF_STEREO_COUNT>
0

> <PUBCHEM_ISOTOPIC_ATOM_COUNT>
0

> <PUBCHEM_COMPONENT_COUNT>
1

> <PUBCHEM_CACTVS_TAUTO_COUNT>
-1

> <PUBCHEM_COORDINATE_TYPE>
1
5
255

> <PUBCHEM_BONDANNOTATIONS>
10  12  8
10  17  8
11  18  8
13  16  8
13  20  8
17  18  8
19  21  8
19  22  8
21  24  8
22  23  8
23  25  8
24  25  8
3  11  8
3  12  8
3  9  8
4  5  8
4  9  8
5  11  8
6  16  8
6  7  8
7  20  8

$$$$
