1400
  -OEChem-03202505232D

 40 42  0     0  0  0  0  0  0999 V2000
    4.6783   -1.7552    0.0000 N   0  0  0  0  0  0  0  0  0  0  0  0
    5.2619   -0.9505    0.0000 N   0  0  0  0  0  0  0  0  0  0  0  0
    2.8660   -1.9505    0.0000 N   0  0  0  0  0  0  0  0  0  0  0  0
    2.0000   -0.4505    0.0000 N   0  0  0  0  0  0  0  0  0  0  0  0
    2.8660    1.0495    0.0000 N   0  0  0  0  0  0  0  0  0  0  0  0
    4.9889   -2.7058    0.0000 C   0  0  0  0  0  0  0  0  0  0  0  0
    3.7320   -1.4505    0.0000 C   0  0  0  0  0  0  0  0  0  0  0  0
    5.2996   -3.6563    0.0000 C   0  0  0  0  0  0  0  0  0  0  0  0
    5.9394   -2.3951    0.0000 C   0  0  0  0  0  0  0  0  0  0  0  0
    4.0384   -3.0164    0.0000 C   0  0  0  0  0  0  0  0  0  0  0  0
    3.7320   -0.4505    0.0000 C   0  0  0  0  0  0  0  0  0  0  0  0
    4.6783   -0.1458    0.0000 C   0  0  0  0  0  0  0  0  0  0  0  0
    4.9889    0.8047    0.0000 C   0  0  0  0  0  0  0  0  0  0  0  0
    2.8660    0.0495    0.0000 C   0  0  0  0  0  0  0  0  0  0  0  0
    4.3211    1.5490    0.0000 C   0  0  0  0  0  0  0  0  0  0  0  0
    5.9674    1.0110    0.0000 C   0  0  0  0  0  0  0  0  0  0  0  0
    2.0000   -1.4505    0.0000 C   0  0  0  0  0  0  0  0  0  0  0  0
    4.6318    2.4996    0.0000 C   0  0  0  0  0  0  0  0  0  0  0  0
    6.2781    1.9615    0.0000 C   0  0  0  0  0  0  0  0  0  0  0  0
    5.6103    2.7058    0.0000 C   0  0  0  0  0  0  0  0  0  0  0  0
    5.9209    3.6563    0.0000 C   0  0  0  0  0  0  0  0  0  0  0  0
    4.7103   -3.8489    0.0000 H   0  0  0  0  0  0  0  0  0  0  0  0
    5.4922   -4.2456    0.0000 H   0  0  0  0  0  0  0  0  0  0  0  0
    5.8889   -3.4637    0.0000 H   0  0  0  0  0  0  0  0  0  0  0  0
    6.1321   -2.9844    0.0000 H   0  0  0  0  0  0  0  0  0  0  0  0
    6.5288   -2.2025    0.0000 H   0  0  0  0  0  0  0  0  0  0  0  0
    5.7468   -1.8058    0.0000 H   0  0  0  0  0  0  0  0  0  0  0  0
    3.8458   -2.4271    0.0000 H   0  0  0  0  0  0  0  0  0  0  0  0
    3.4491   -3.2090    0.0000 H   0  0  0  0  0  0  0  0  0  0  0  0
    4.2310   -3.6058    0.0000 H   0  0  0  0  0  0  0  0  0  0  0  0
    3.7144    1.4212    0.0000 H   0  0  0  0  0  0  0  0  0  0  0  0
    6.3815    0.5495    0.0000 H   0  0  0  0  0  0  0  0  0  0  0  0
    1.4631   -1.7605    0.0000 H   0  0  0  0  0  0  0  0  0  0  0  0
    4.2177    2.9610    0.0000 H   0  0  0  0  0  0  0  0  0  0  0  0
    6.8848    2.0893    0.0000 H   0  0  0  0  0  0  0  0  0  0  0  0
    2.3291    1.3595    0.0000 H   0  0  0  0  0  0  0  0  0  0  0  0
    3.4030    1.3595    0.0000 H   0  0  0  0  0  0  0  0  0  0  0  0
    6.5102    3.4637    0.0000 H   0  0  0  0  0  0  0  0  0  0  0  0
    6.1135    4.2456    0.0000 H   0  0  0  0  0  0  0  0  0  0  0  0
    5.3316    3.8489    0.0000 H   0  0  0  0  0  0  0  0  0  0  0  0
  1  2  1  0  0  0  0
  1  6  1  0  0  0  0
  1  7  1  0  0  0  0
  2 12  2  0  0  0  0
  3  7  2  0  0  0  0
  3 17  1  0  0  0  0
  4 14  1  0  0  0  0
  4 17  2  0  0  0  0
  5 14  1  0  0  0  0
  5 36  1  0  0  0  0
  5 37  1  0  0  0  0
  6  8  1  0  0  0  0
  6  9  1  0  0  0  0
  6 10  1  0  0  0  0
  7 11  1  0  0  0  0
  8 22  1  0  0  0  0
  8 23  1  0  0  0  0
  8 24  1  0  0  0  0
  9 25  1  0  0  0  0
  9 26  1  0  0  0  0
  9 27  1  0  0  0  0
 10 28  1  0  0  0  0
 10 29  1  0  0  0  0
 10 30  1  0  0  0  0
 11 12  1  0  0  0  0
 11 14  2  0  0  0  0
 12 13  1  0  0  0  0
 13 15  2  0  0  0  0
 13 16  1  0  0  0  0
 15 18  1  0  0  0  0
 15 31  1  0  0  0  0
 16 19  2  0  0  0  0
 16 32  1  0  0  0  0
 17 33  1  0  0  0  0
 18 20  2  0  0  0  0
 18 34  1  0  0  0  0
 19 20  1  0  0  0  0
 19 35  1  0  0  0  0
 20 21  1  0  0  0  0
 21 38  1  0  0  0  0
 21 39  1  0  0  0  0
 21 40  1  0  0  0  0
M  END
> <PUBCHEM_COMPOUND_CID>
1400

> <PUBCHEM_COMPOUND_CANONICALIZED>
1

> <PUBCHEM_CACTVS_COMPLEXITY>
358

> <PUBCHEM_CACTVS_HBOND_ACCEPTOR>
4

> <PUBCHEM_CACTVS_HBOND_DONOR>
1

> <PUBCHEM_CACTVS_ROTATABLE_BOND>
2

> <PUBCHEM_CACTVS_SUBSKEYS>
AAADceB7gAAAAAAAAAAAAAAAAAAAAWAAAAA8QAAAAAAAAFgB/AAAHAAYAAAADIiBHwQ3sN5IEACiAyZjZACShCsxAKAd2CAoRJiIKKLA2dGEpAhoiALIyCcQgMAOQAAAAAAAAACAAAAAAAAAAAAAAAAAAA==

> <PUBCHEM_IUPAC_OPENEYE_NAME>
1-tert-butyl-3-(p-tolyl)pyrazolo[3,4-d]pyrimidin-4-amine

> <PUBCHEM_IUPAC_CAS_NAME>
1-tert-butyl-3-(4-methylphenyl)-4-pyrazolo[3,4-d]pyrimidinamine

> <PUBCHEM_IUPAC_NAME_MARKUP>
1-<I>tert</I>-butyl-3-(4-methylphenyl)pyrazolo[3,4-d]pyrimidin-4-amine

> <PUBCHEM_IUPAC_NAME>
1-tert-butyl-3-(4-methylphenyl)pyrazolo[3,4-d]pyrimidin-4-amine

> <PUBCHEM_IUPAC_SYSTEMATIC_NAME>
1-tert-butyl-3-(4-methylphenyl)pyrazolo[3,4-d]pyrimidin-4-amine

> <PUBCHEM_IUPAC_TRADITIONAL_NAME>
[1-tert-butyl-3-(p-tolyl)pyrazolo[3,4-d]pyrimidin-4-yl]amine

> <PUBCHEM_IUPAC_INCHI>
InChI=1S/C16H19N5/c1-10-5-7-11(8-6-10)13-12-14(17)18-9-19-15(12)21(20-13)16(2,3)4/h5-9H,1-4H3,(H2,17,18,19)

> <PUBCHEM_IUPAC_INCHIKEY>
ZVPDNRVYHLRXLX-UHFFFAOYSA-N

> <PUBCHEM_XLOGP3_AA>
2.8

> <PUBCHEM_EXACT_MASS>
281.16404563

> <PUBCHEM_MOLECULAR_FORMULA>
C16H19N5

> <PUBCHEM_MOLECULAR_WEIGHT>
281.36

> <PUBCHEM_SMILES>
CC1=CC=C(C=C1)C2=NN(C3=NC=NC(=C23)N)C(C)(C)C

> <PUBCHEM_OPENEYE_CAN_SMILES>
CC1=CC=C(C=C1)C2=NN(C3=NC=NC(=C23)N)C(C)(C)C

> <PUBCHEM_OPENEYE_ISO_SMILES>
CC1=CC=C(C=C1)C2=NN(C3=NC=NC(=C23)N)C(C)(C)C

> <PUBCHEM_CACTVS_TPSA>
69.6

> <PUBCHEM_MONOISOTOPIC_WEIGHT>
281.16404563

> <PUBCHEM_TOTAL_CHARGE>
0

> <PUBCHEM_HEAVY_ATOM_COUNT>
21

> <PUBCHEM_ATOM_DEF_STEREO_COUNT>
0

> <PUBCHEM_ATOM_UDEF_STEREO_COUNT>
0

> <PUBCHEM_BOND_DEF_STEREO_COUNT>
0

> <PUBCHEM_BOND_UDEF_STEREO_COUNT>
0

> <PUBCHEM_ISOTOPIC_ATOM_COUNT>
0

> <PUBCHEM_COMPONENT_COUNT>
1

> <PUBCHEM_CACTVS_TAUTO_COUNT>
-1

> <PUBCHEM_COORDINATE_TYPE>
1
5
255

> <PUBCHEM_BONDANNOTATIONS>
1  2  8
1  7  8
11  12  8
11  14  8
13  15  8
13  16  8
15  18  8
16  19  8
18  20  8
19  20  8
2  12  8
3  17  8
3  7  8
4  14  8
4  17  8
7  11  8

$$$$
