44410723
  -OEChem-03202505582D

 56 58  0     1  0  0  0  0  0999 V2000
   11.5078   -3.5272    0.0000 Cl  0  0  0  0  0  0  0  0  0  0  0  0
    9.7875   -2.5072    0.0000 F   0  0  0  0  0  0  0  0  0  0  0  0
    6.3301    2.5272    0.0000 O   0  0  0  0  0  0  0  0  0  0  0  0
    3.7320    2.0272    0.0000 O   0  0  0  0  0  0  0  0  0  0  0  0
    5.4641    1.0272    0.0000 N   0  0  3  0  0  0  0  0  0  0  0  0
    2.8660    0.5272    0.0000 N   0  0  0  0  0  0  0  0  0  0  0  0
    9.8106   -0.5074    0.0000 N   0  0  0  0  0  0  0  0  0  0  0  0
    9.8222    2.5619    0.0000 N   0  0  0  0  0  0  0  0  0  0  0  0
   10.7282    1.0064    0.0000 N   0  0  0  0  0  0  0  0  0  0  0  0
    4.5981    0.5272    0.0000 C   0  0  2  0  0  0  0  0  0  0  0  0
    6.3301    0.5272    0.0000 C   0  0  0  0  0  0  0  0  0  0  0  0
    7.1962    1.0272    0.0000 C   0  0  0  0  0  0  0  0  0  0  0  0
    4.5981   -0.4728    0.0000 C   0  0  0  0  0  0  0  0  0  0  0  0
    3.7320    1.0272    0.0000 C   0  0  0  0  0  0  0  0  0  0  0  0
    5.4641    2.0272    0.0000 C   0  0  0  0  0  0  0  0  0  0  0  0
    8.0622    0.5272    0.0000 C   0  0  0  0  0  0  0  0  0  0  0  0
    7.1962    2.0272    0.0000 C   0  0  0  0  0  0  0  0  0  0  0  0
    8.9282    1.0272    0.0000 C   0  0  0  0  0  0  0  0  0  0  0  0
    8.9282    2.0272    0.0000 C   0  0  0  0  0  0  0  0  0  0  0  0
    8.0622    2.5272    0.0000 C   0  0  0  0  0  0  0  0  0  0  0  0
    9.8222    0.4926    0.0000 C   0  0  0  0  0  0  0  0  0  0  0  0
    2.0000    1.0272    0.0000 C   0  0  0  0  0  0  0  0  0  0  0  0
    2.8660   -0.4728    0.0000 C   0  0  0  0  0  0  0  0  0  0  0  0
   10.7282    2.0480    0.0000 C   0  0  0  0  0  0  0  0  0  0  0  0
   10.6708   -1.0174    0.0000 C   0  0  0  0  0  0  0  0  0  0  0  0
    6.3301    3.5272    0.0000 C   0  0  0  0  0  0  0  0  0  0  0  0
   10.6592   -2.0173    0.0000 C   0  0  0  0  0  0  0  0  0  0  0  0
   11.5425   -0.5274    0.0000 C   0  0  0  0  0  0  0  0  0  0  0  0
   11.5194   -2.5273    0.0000 C   0  0  0  0  0  0  0  0  0  0  0  0
   12.4027   -1.0374    0.0000 C   0  0  0  0  0  0  0  0  0  0  0  0
   12.3911   -2.0373    0.0000 C   0  0  0  0  0  0  0  0  0  0  0  0
    5.1350    0.2172    0.0000 H   0  0  0  0  0  0  0  0  0  0  0  0
    5.9316    0.0523    0.0000 H   0  0  0  0  0  0  0  0  0  0  0  0
    6.7287    0.0523    0.0000 H   0  0  0  0  0  0  0  0  0  0  0  0
    3.9781   -0.4728    0.0000 H   0  0  0  0  0  0  0  0  0  0  0  0
    4.5981   -1.0928    0.0000 H   0  0  0  0  0  0  0  0  0  0  0  0
    5.2181   -0.4728    0.0000 H   0  0  0  0  0  0  0  0  0  0  0  0
    6.0841    2.0272    0.0000 H   0  0  0  0  0  0  0  0  0  0  0  0
    5.4641    2.6472    0.0000 H   0  0  0  0  0  0  0  0  0  0  0  0
    4.8441    2.0272    0.0000 H   0  0  0  0  0  0  0  0  0  0  0  0
    8.0622   -0.0928    0.0000 H   0  0  0  0  0  0  0  0  0  0  0  0
    8.0622    3.1472    0.0000 H   0  0  0  0  0  0  0  0  0  0  0  0
    2.3100    1.5642    0.0000 H   0  0  0  0  0  0  0  0  0  0  0  0
    1.4631    1.3372    0.0000 H   0  0  0  0  0  0  0  0  0  0  0  0
    1.6900    0.4903    0.0000 H   0  0  0  0  0  0  0  0  0  0  0  0
    2.2460   -0.4728    0.0000 H   0  0  0  0  0  0  0  0  0  0  0  0
    2.8660   -1.0928    0.0000 H   0  0  0  0  0  0  0  0  0  0  0  0
    3.4860   -0.4728    0.0000 H   0  0  0  0  0  0  0  0  0  0  0  0
    9.2701   -0.8112    0.0000 H   0  0  0  0  0  0  0  0  0  0  0  0
   11.2639    2.3601    0.0000 H   0  0  0  0  0  0  0  0  0  0  0  0
    6.9501    3.5272    0.0000 H   0  0  0  0  0  0  0  0  0  0  0  0
    6.3301    4.1472    0.0000 H   0  0  0  0  0  0  0  0  0  0  0  0
    5.7101    3.5272    0.0000 H   0  0  0  0  0  0  0  0  0  0  0  0
   11.5497    0.0925    0.0000 H   0  0  0  0  0  0  0  0  0  0  0  0
   12.9432   -0.7336    0.0000 H   0  0  0  0  0  0  0  0  0  0  0  0
   12.9245   -2.3535    0.0000 H   0  0  0  0  0  0  0  0  0  0  0  0
  1 29  1  0  0  0  0
  2 27  1  0  0  0  0
  3 17  1  0  0  0  0
  3 26  1  0  0  0  0
  4 14  2  0  0  0  0
 10  5  1  6  0  0  0
  5 11  1  0  0  0  0
  5 15  1  0  0  0  0
  6 14  1  0  0  0  0
  6 22  1  0  0  0  0
  6 23  1  0  0  0  0
  7 21  1  0  0  0  0
  7 25  1  0  0  0  0
  7 49  1  0  0  0  0
  8 19  1  0  0  0  0
  8 24  2  0  0  0  0
  9 21  2  0  0  0  0
  9 24  1  0  0  0  0
 10 13  1  0  0  0  0
 10 14  1  0  0  0  0
 10 32  1  0  0  0  0
 11 12  1  0  0  0  0
 11 33  1  0  0  0  0
 11 34  1  0  0  0  0
 12 16  2  0  0  0  0
 12 17  1  0  0  0  0
 13 35  1  0  0  0  0
 13 36  1  0  0  0  0
 13 37  1  0  0  0  0
 15 38  1  0  0  0  0
 15 39  1  0  0  0  0
 15 40  1  0  0  0  0
 16 18  1  0  0  0  0
 16 41  1  0  0  0  0
 17 20  2  0  0  0  0
 18 19  2  0  0  0  0
 18 21  1  0  0  0  0
 19 20  1  0  0  0  0
 20 42  1  0  0  0  0
 22 43  1  0  0  0  0
 22 44  1  0  0  0  0
 22 45  1  0  0  0  0
 23 46  1  0  0  0  0
 23 47  1  0  0  0  0
 23 48  1  0  0  0  0
 24 50  1  0  0  0  0
 25 27  2  0  0  0  0
 25 28  1  0  0  0  0
 26 51  1  0  0  0  0
 26 52  1  0  0  0  0
 26 53  1  0  0  0  0
 27 29  1  0  0  0  0
 28 30  2  0  0  0  0
 28 54  1  0  0  0  0
 29 31  2  0  0  0  0
 30 31  1  0  0  0  0
 30 55  1  0  0  0  0
 31 56  1  0  0  0  0
M  END
> <PUBCHEM_COMPOUND_CID>
44410723

> <PUBCHEM_COMPOUND_CANONICALIZED>
1

> <PUBCHEM_CACTVS_COMPLEXITY>
600

> <PUBCHEM_CACTVS_HBOND_ACCEPTOR>
7

> <PUBCHEM_CACTVS_HBOND_DONOR>
1

> <PUBCHEM_CACTVS_ROTATABLE_BOND>
7

> <PUBCHEM_CACTVS_SUBSKEYS>
AAADceB7sQAEAAAAAAAAAAAAAAAAAAAAAAA8YIAAAAAAAACx9AAAHwIQAAAADC7Bni439vfIFACoAydzdACCiCkxJ6AJ2CG+bpiMbuLF+/uUNChu0hvI6CeQ0GMOKAACAgIKAABQAAQEBBQAAAAAAAAAAA==

> <PUBCHEM_IUPAC_OPENEYE_NAME>
(2R)-2-[[4-(3-chloro-2-fluoro-anilino)-7-methoxy-quinazolin-6-yl]methyl-methyl-amino]-N,N-dimethyl-propanamide

> <PUBCHEM_IUPAC_CAS_NAME>
(2R)-2-[[4-(3-chloro-2-fluoroanilino)-7-methoxy-6-quinazolinyl]methyl-methylamino]-N,N-dimethylpropanamide

> <PUBCHEM_IUPAC_NAME_MARKUP>
(2<I>R</I>)-2-[[4-(3-chloro-2-fluoroanilino)-7-methoxyquinazolin-6-yl]methyl-methylamino]-<I>N</I>,<I>N</I>-dimethylpropanamide

> <PUBCHEM_IUPAC_NAME>
(2R)-2-[[4-(3-chloro-2-fluoroanilino)-7-methoxyquinazolin-6-yl]methyl-methylamino]-N,N-dimethylpropanamide

> <PUBCHEM_IUPAC_SYSTEMATIC_NAME>
(2R)-2-[[4-[(3-chloranyl-2-fluoranyl-phenyl)amino]-7-methoxy-quinazolin-6-yl]methyl-methyl-amino]-N,N-dimethyl-propanamide

> <PUBCHEM_IUPAC_TRADITIONAL_NAME>
(2R)-2-[[4-(3-chloro-2-fluoro-anilino)-7-methoxy-quinazolin-6-yl]methyl-methyl-amino]-N,N-dimethyl-propionamide

> <PUBCHEM_IUPAC_INCHI>
InChI=1S/C22H25ClFN5O2/c1-13(22(30)28(2)3)29(4)11-14-9-15-18(10-19(14)31-5)25-12-26-21(15)27-17-8-6-7-16(23)20(17)24/h6-10,12-13H,11H2,1-5H3,(H,25,26,27)/t13-/m1/s1

> <PUBCHEM_IUPAC_INCHIKEY>
QANFVYUCQKENPQ-CYBMUJFWSA-N

> <PUBCHEM_XLOGP3_AA>
3.9

> <PUBCHEM_EXACT_MASS>
445.1680809

> <PUBCHEM_MOLECULAR_FORMULA>
C22H25ClFN5O2

> <PUBCHEM_MOLECULAR_WEIGHT>
445.9

> <PUBCHEM_SMILES>
C[C@H](C(=O)N(C)C)N(C)CC1=CC2=C(C=C1OC)N=CN=C2NC3=C(C(=CC=C3)Cl)F

> <PUBCHEM_OPENEYE_CAN_SMILES>
CC(C(=O)N(C)C)N(C)CC1=CC2=C(C=C1OC)N=CN=C2NC3=C(C(=CC=C3)Cl)F

> <PUBCHEM_OPENEYE_ISO_SMILES>
C[C@H](C(=O)N(C)C)N(C)CC1=CC2=C(C=C1OC)N=CN=C2NC3=C(C(=CC=C3)Cl)F

> <PUBCHEM_CACTVS_TPSA>
70.6

> <PUBCHEM_MONOISOTOPIC_WEIGHT>
445.1680809

> <PUBCHEM_TOTAL_CHARGE>
0

> <PUBCHEM_HEAVY_ATOM_COUNT>
31

> <PUBCHEM_ATOM_DEF_STEREO_COUNT>
1

> <PUBCHEM_ATOM_UDEF_STEREO_COUNT>
0

> <PUBCHEM_BOND_DEF_STEREO_COUNT>
0

> <PUBCHEM_BOND_UDEF_STEREO_COUNT>
0

> <PUBCHEM_ISOTOPIC_ATOM_COUNT>
0

> <PUBCHEM_COMPONENT_COUNT>
1

> <PUBCHEM_CACTVS_TAUTO_COUNT>
-1

> <PUBCHEM_COORDINATE_TYPE>
1
5
255

> <PUBCHEM_BONDANNOTATIONS>
12  16  8
12  17  8
16  18  8
17  20  8
18  19  8
18  21  8
19  20  8
25  27  8
25  28  8
27  29  8
28  30  8
29  31  8
30  31  8
10  5  6
8  19  8
8  24  8
9  21  8
9  24  8

$$$$
