49830373
  -OEChem-03202502452D

 59 63  0     0  0  0  0  0  0999 V2000
    4.6783   -2.3320    0.0000 S   0  0  0  0  0  0  0  0  0  0  0  0
    7.2566    1.5910    0.0000 F   0  0  0  0  0  0  0  0  0  0  0  0
    4.1349   -7.5976    0.0000 O   0  0  0  0  0  0  0  0  0  0  0  0
    4.2746    3.6177    0.0000 O   0  0  0  0  0  0  0  0  0  0  0  0
    3.3660   -5.0661    0.0000 N   0  0  0  0  0  0  0  0  0  0  0  0
    2.0000   -1.0272    0.0000 N   0  0  0  0  0  0  0  0  0  0  0  0
    2.3660   -5.0661    0.0000 N   0  0  0  0  0  0  0  0  0  0  0  0
    2.8660    0.4728    0.0000 N   0  0  0  0  0  0  0  0  0  0  0  0
    5.9209    3.0796    0.0000 N   0  0  0  0  0  0  0  0  0  0  0  0
    5.5637    4.7744    0.0000 N   0  0  0  0  0  0  0  0  0  0  0  0
    3.7320   -1.0272    0.0000 C   0  0  0  0  0  0  0  0  0  0  0  0
    3.7320   -2.0272    0.0000 C   0  0  0  0  0  0  0  0  0  0  0  0
    4.6783   -0.7225    0.0000 C   0  0  0  0  0  0  0  0  0  0  0  0
    2.8660   -2.5272    0.0000 C   0  0  0  0  0  0  0  0  0  0  0  0
    2.8660   -3.5272    0.0000 C   0  0  0  0  0  0  0  0  0  0  0  0
    4.9889    0.2280    0.0000 C   0  0  0  0  0  0  0  0  0  0  0  0
    2.8660   -0.5272    0.0000 C   0  0  0  0  0  0  0  0  0  0  0  0
    5.2619   -1.5272    0.0000 C   0  0  0  0  0  0  0  0  0  0  0  0
    2.0000   -2.0272    0.0000 C   0  0  0  0  0  0  0  0  0  0  0  0
    3.6750   -4.1150    0.0000 C   0  0  0  0  0  0  0  0  0  0  0  0
    2.0570   -4.1150    0.0000 C   0  0  0  0  0  0  0  0  0  0  0  0
    5.9674    0.4342    0.0000 C   0  0  0  0  0  0  0  0  0  0  0  0
    4.3211    0.9723    0.0000 C   0  0  0  0  0  0  0  0  0  0  0  0
    3.9538   -5.8751    0.0000 C   0  0  0  0  0  0  0  0  0  0  0  0
    5.6103    2.1291    0.0000 C   0  0  0  0  0  0  0  0  0  0  0  0
    6.2781    1.3848    0.0000 C   0  0  0  0  0  0  0  0  0  0  0  0
    4.6318    1.9228    0.0000 C   0  0  0  0  0  0  0  0  0  0  0  0
    3.5471   -6.7886    0.0000 C   0  0  0  0  0  0  0  0  0  0  0  0
    5.2531    3.8239    0.0000 C   0  0  0  0  0  0  0  0  0  0  0  0
    4.8959    5.5187    0.0000 C   0  0  0  0  0  0  0  0  0  0  0  0
    5.2066    6.4692    0.0000 C   0  0  0  0  0  0  0  0  0  0  0  0
    4.5387    7.2135    0.0000 C   0  0  0  0  0  0  0  0  0  0  0  0
    3.9174    5.3125    0.0000 C   0  0  0  0  0  0  0  0  0  0  0  0
    3.5602    7.0073    0.0000 C   0  0  0  0  0  0  0  0  0  0  0  0
    3.2496    6.0568    0.0000 C   0  0  0  0  0  0  0  0  0  0  0  0
    4.8494    8.1640    0.0000 C   0  0  0  0  0  0  0  0  0  0  0  0
    5.8819   -1.5272    0.0000 H   0  0  0  0  0  0  0  0  0  0  0  0
    1.4631   -2.3372    0.0000 H   0  0  0  0  0  0  0  0  0  0  0  0
    4.2647   -3.9234    0.0000 H   0  0  0  0  0  0  0  0  0  0  0  0
    1.4674   -3.9234    0.0000 H   0  0  0  0  0  0  0  0  0  0  0  0
    6.3815   -0.0272    0.0000 H   0  0  0  0  0  0  0  0  0  0  0  0
    3.7144    0.8445    0.0000 H   0  0  0  0  0  0  0  0  0  0  0  0
    4.4678   -6.2218    0.0000 H   0  0  0  0  0  0  0  0  0  0  0  0
    4.3845   -5.4291    0.0000 H   0  0  0  0  0  0  0  0  0  0  0  0
    4.2177    2.3843    0.0000 H   0  0  0  0  0  0  0  0  0  0  0  0
    2.3291    0.7828    0.0000 H   0  0  0  0  0  0  0  0  0  0  0  0
    3.4030    0.7828    0.0000 H   0  0  0  0  0  0  0  0  0  0  0  0
    3.0331   -6.4419    0.0000 H   0  0  0  0  0  0  0  0  0  0  0  0
    3.1164   -7.2346    0.0000 H   0  0  0  0  0  0  0  0  0  0  0  0
    6.5276    3.2074    0.0000 H   0  0  0  0  0  0  0  0  0  0  0  0
    6.1704    4.9023    0.0000 H   0  0  0  0  0  0  0  0  0  0  0  0
    5.8132    6.5971    0.0000 H   0  0  0  0  0  0  0  0  0  0  0  0
    3.8827   -8.1640    0.0000 H   0  0  0  0  0  0  0  0  0  0  0  0
    3.7248    4.7232    0.0000 H   0  0  0  0  0  0  0  0  0  0  0  0
    3.1461    7.4688    0.0000 H   0  0  0  0  0  0  0  0  0  0  0  0
    2.6429    5.9289    0.0000 H   0  0  0  0  0  0  0  0  0  0  0  0
    5.4387    7.9714    0.0000 H   0  0  0  0  0  0  0  0  0  0  0  0
    5.0420    8.7534    0.0000 H   0  0  0  0  0  0  0  0  0  0  0  0
    4.2600    8.3567    0.0000 H   0  0  0  0  0  0  0  0  0  0  0  0
  1 12  1  0  0  0  0
  1 18  1  0  0  0  0
  2 26  1  0  0  0  0
  3 28  1  0  0  0  0
  3 53  1  0  0  0  0
  4 29  2  0  0  0  0
  5  7  1  0  0  0  0
  5 20  1  0  0  0  0
  5 24  1  0  0  0  0
  6 17  2  0  0  0  0
  6 19  1  0  0  0  0
  7 21  2  0  0  0  0
  8 17  1  0  0  0  0
  8 46  1  0  0  0  0
  8 47  1  0  0  0  0
  9 25  1  0  0  0  0
  9 29  1  0  0  0  0
  9 50  1  0  0  0  0
 10 29  1  0  0  0  0
 10 30  1  0  0  0  0
 10 51  1  0  0  0  0
 11 12  2  0  0  0  0
 11 13  1  0  0  0  0
 11 17  1  0  0  0  0
 12 14  1  0  0  0  0
 13 16  1  0  0  0  0
 13 18  2  0  0  0  0
 14 15  1  0  0  0  0
 14 19  2  0  0  0  0
 15 20  2  0  0  0  0
 15 21  1  0  0  0  0
 16 22  2  0  0  0  0
 16 23  1  0  0  0  0
 18 37  1  0  0  0  0
 19 38  1  0  0  0  0
 20 39  1  0  0  0  0
 21 40  1  0  0  0  0
 22 26  1  0  0  0  0
 22 41  1  0  0  0  0
 23 27  2  0  0  0  0
 23 42  1  0  0  0  0
 24 28  1  0  0  0  0
 24 43  1  0  0  0  0
 24 44  1  0  0  0  0
 25 26  2  0  0  0  0
 25 27  1  0  0  0  0
 27 45  1  0  0  0  0
 28 48  1  0  0  0  0
 28 49  1  0  0  0  0
 30 31  1  0  0  0  0
 30 33  2  0  0  0  0
 31 32  2  0  0  0  0
 31 52  1  0  0  0  0
 32 34  1  0  0  0  0
 32 36  1  0  0  0  0
 33 35  1  0  0  0  0
 33 54  1  0  0  0  0
 34 35  2  0  0  0  0
 34 55  1  0  0  0  0
 35 56  1  0  0  0  0
 36 57  1  0  0  0  0
 36 58  1  0  0  0  0
 36 59  1  0  0  0  0
M  END
> <PUBCHEM_COMPOUND_CID>
49830373

> <PUBCHEM_COMPOUND_CANONICALIZED>
1

> <PUBCHEM_CACTVS_COMPLEXITY>
751

> <PUBCHEM_CACTVS_HBOND_ACCEPTOR>
7

> <PUBCHEM_CACTVS_HBOND_DONOR>
4

> <PUBCHEM_CACTVS_ROTATABLE_BOND>
6

> <PUBCHEM_CACTVS_SUBSKEYS>
AAADceB7sQBAAAAAAAAAAAAAAAAAAWJAAAA8YIAAAAAAAFgB/gAAHwQYCAAADAjl2g6/8dLIEgiuAjZndACThKkxijAY2DAoZJiKMOLg0dGEpAxonAL4yCcQgMAOiAAAQAAAAAAQAACAAAAAAAAAAAAAAA==

> <PUBCHEM_IUPAC_OPENEYE_NAME>
1-[4-[4-amino-7-[1-(2-hydroxyethyl)pyrazol-4-yl]thieno[3,2-c]pyridin-3-yl]-2-fluoro-phenyl]-3-(m-tolyl)urea

> <PUBCHEM_IUPAC_CAS_NAME>
1-[4-[4-amino-7-[1-(2-hydroxyethyl)-4-pyrazolyl]-3-thieno[3,2-c]pyridinyl]-2-fluorophenyl]-3-(3-methylphenyl)urea

> <PUBCHEM_IUPAC_NAME_MARKUP>
1-[4-[4-amino-7-[1-(2-hydroxyethyl)pyrazol-4-yl]thieno[3,2-c]pyridin-3-yl]-2-fluorophenyl]-3-(3-methylphenyl)urea

> <PUBCHEM_IUPAC_NAME>
1-[4-[4-amino-7-[1-(2-hydroxyethyl)pyrazol-4-yl]thieno[3,2-c]pyridin-3-yl]-2-fluorophenyl]-3-(3-methylphenyl)urea

> <PUBCHEM_IUPAC_SYSTEMATIC_NAME>
1-[4-[4-azanyl-7-[1-(2-hydroxyethyl)pyrazol-4-yl]thieno[3,2-c]pyridin-3-yl]-2-fluoranyl-phenyl]-3-(3-methylphenyl)urea

> <PUBCHEM_IUPAC_TRADITIONAL_NAME>
1-[4-[4-amino-7-[1-(2-hydroxyethyl)pyrazol-4-yl]thieno[3,2-c]pyridin-3-yl]-2-fluoro-phenyl]-3-(m-tolyl)urea

> <PUBCHEM_IUPAC_INCHI>
InChI=1S/C26H23FN6O2S/c1-15-3-2-4-18(9-15)31-26(35)32-22-6-5-16(10-21(22)27)20-14-36-24-19(12-29-25(28)23(20)24)17-11-30-33(13-17)7-8-34/h2-6,9-14,34H,7-8H2,1H3,(H2,28,29)(H2,31,32,35)

> <PUBCHEM_IUPAC_INCHIKEY>
ORRHVRJUSPCILV-UHFFFAOYSA-N

> <PUBCHEM_XLOGP3_AA>
3.4

> <PUBCHEM_EXACT_MASS>
502.15872333

> <PUBCHEM_MOLECULAR_FORMULA>
C26H23FN6O2S

> <PUBCHEM_MOLECULAR_WEIGHT>
502.6

> <PUBCHEM_SMILES>
CC1=CC(=CC=C1)NC(=O)NC2=C(C=C(C=C2)C3=CSC4=C3C(=NC=C4C5=CN(N=C5)CCO)N)F

> <PUBCHEM_OPENEYE_CAN_SMILES>
CC1=CC(=CC=C1)NC(=O)NC2=C(C=C(C=C2)C3=CSC4=C3C(=NC=C4C5=CN(N=C5)CCO)N)F

> <PUBCHEM_OPENEYE_ISO_SMILES>
CC1=CC(=CC=C1)NC(=O)NC2=C(C=C(C=C2)C3=CSC4=C3C(=NC=C4C5=CN(N=C5)CCO)N)F

> <PUBCHEM_CACTVS_TPSA>
146

> <PUBCHEM_MONOISOTOPIC_WEIGHT>
502.15872333

> <PUBCHEM_TOTAL_CHARGE>
0

> <PUBCHEM_HEAVY_ATOM_COUNT>
36

> <PUBCHEM_ATOM_DEF_STEREO_COUNT>
0

> <PUBCHEM_ATOM_UDEF_STEREO_COUNT>
0

> <PUBCHEM_BOND_DEF_STEREO_COUNT>
0

> <PUBCHEM_BOND_UDEF_STEREO_COUNT>
0

> <PUBCHEM_ISOTOPIC_ATOM_COUNT>
0

> <PUBCHEM_COMPONENT_COUNT>
1

> <PUBCHEM_CACTVS_TAUTO_COUNT>
-1

> <PUBCHEM_COORDINATE_TYPE>
1
5
255

> <PUBCHEM_BONDANNOTATIONS>
1  12  8
1  18  8
11  12  8
11  13  8
11  17  8
12  14  8
13  18  8
14  19  8
15  20  8
15  21  8
16  22  8
16  23  8
22  26  8
23  27  8
25  26  8
25  27  8
30  31  8
30  33  8
31  32  8
32  34  8
33  35  8
34  35  8
5  20  8
5  7  8
6  17  8
6  19  8
7  21  8

$$$$
