44560751
  -OEChem-03202506482D

 47 50  0     0  0  0  0  0  0999 V2000
    6.3301    0.0427    0.0000 O   0  0  0  0  0  0  0  0  0  0  0  0
    7.1962   -1.4573    0.0000 N   0  0  0  0  0  0  0  0  0  0  0  0
   11.5263   -0.9573    0.0000 N   0  0  0  0  0  0  0  0  0  0  0  0
   13.2862    0.0080    0.0000 N   0  0  0  0  0  0  0  0  0  0  0  0
   13.2862    2.0773    0.0000 N   0  0  0  0  0  0  0  0  0  0  0  0
    5.4641   -1.4573    0.0000 N   0  0  0  0  0  0  0  0  0  0  0  0
   10.6603    0.5427    0.0000 C   0  0  0  0  0  0  0  0  0  0  0  0
    9.7942    0.0427    0.0000 C   0  0  0  0  0  0  0  0  0  0  0  0
   11.5263    0.0427    0.0000 C   0  0  0  0  0  0  0  0  0  0  0  0
   12.3923    0.5427    0.0000 C   0  0  0  0  0  0  0  0  0  0  0  0
   10.6603    1.5427    0.0000 C   0  0  0  0  0  0  0  0  0  0  0  0
   12.3923    1.5427    0.0000 C   0  0  0  0  0  0  0  0  0  0  0  0
    9.7942   -0.9573    0.0000 C   0  0  0  0  0  0  0  0  0  0  0  0
    8.9282    0.5427    0.0000 C   0  0  0  0  0  0  0  0  0  0  0  0
    8.0622   -0.9573    0.0000 C   0  0  0  0  0  0  0  0  0  0  0  0
   11.5263    2.0427    0.0000 C   0  0  0  0  0  0  0  0  0  0  0  0
    8.9282   -1.4573    0.0000 C   0  0  0  0  0  0  0  0  0  0  0  0
    8.0622    0.0427    0.0000 C   0  0  0  0  0  0  0  0  0  0  0  0
    4.5981   -0.9573    0.0000 C   0  0  0  0  0  0  0  0  0  0  0  0
    6.3301   -0.9573    0.0000 C   0  0  0  0  0  0  0  0  0  0  0  0
    2.8660   -0.9573    0.0000 C   0  0  0  0  0  0  0  0  0  0  0  0
    3.7320   -1.4573    0.0000 C   0  0  0  0  0  0  0  0  0  0  0  0
    4.5981    0.0427    0.0000 C   0  0  0  0  0  0  0  0  0  0  0  0
   14.1923    0.5219    0.0000 C   0  0  0  0  0  0  0  0  0  0  0  0
   14.1923    1.5635    0.0000 C   0  0  0  0  0  0  0  0  0  0  0  0
    2.8660    0.0427    0.0000 C   0  0  0  0  0  0  0  0  0  0  0  0
    3.7320    0.5427    0.0000 C   0  0  0  0  0  0  0  0  0  0  0  0
    2.0000   -1.4573    0.0000 C   0  0  0  0  0  0  0  0  0  0  0  0
   10.1233    1.8527    0.0000 H   0  0  0  0  0  0  0  0  0  0  0  0
   10.3312   -1.2673    0.0000 H   0  0  0  0  0  0  0  0  0  0  0  0
    8.9282    1.1627    0.0000 H   0  0  0  0  0  0  0  0  0  0  0  0
   11.5263    2.6627    0.0000 H   0  0  0  0  0  0  0  0  0  0  0  0
    8.9282   -2.0773    0.0000 H   0  0  0  0  0  0  0  0  0  0  0  0
    7.5252    0.3527    0.0000 H   0  0  0  0  0  0  0  0  0  0  0  0
    7.1962   -2.0773    0.0000 H   0  0  0  0  0  0  0  0  0  0  0  0
   12.0632   -1.2673    0.0000 H   0  0  0  0  0  0  0  0  0  0  0  0
   10.9893   -1.2673    0.0000 H   0  0  0  0  0  0  0  0  0  0  0  0
    3.7320   -2.0773    0.0000 H   0  0  0  0  0  0  0  0  0  0  0  0
    5.4641   -2.0773    0.0000 H   0  0  0  0  0  0  0  0  0  0  0  0
    5.1350    0.3527    0.0000 H   0  0  0  0  0  0  0  0  0  0  0  0
   14.7281    0.2098    0.0000 H   0  0  0  0  0  0  0  0  0  0  0  0
    2.3291    0.3527    0.0000 H   0  0  0  0  0  0  0  0  0  0  0  0
   14.7281    1.8756    0.0000 H   0  0  0  0  0  0  0  0  0  0  0  0
    3.7320    1.1627    0.0000 H   0  0  0  0  0  0  0  0  0  0  0  0
    1.6900   -0.9204    0.0000 H   0  0  0  0  0  0  0  0  0  0  0  0
    1.4631   -1.7673    0.0000 H   0  0  0  0  0  0  0  0  0  0  0  0
    2.3100   -1.9943    0.0000 H   0  0  0  0  0  0  0  0  0  0  0  0
  1 20  2  0  0  0  0
  2 15  1  0  0  0  0
  2 20  1  0  0  0  0
  2 35  1  0  0  0  0
  3  9  1  0  0  0  0
  3 36  1  0  0  0  0
  3 37  1  0  0  0  0
  4 10  2  0  0  0  0
  4 24  1  0  0  0  0
  5 12  2  0  0  0  0
  5 25  1  0  0  0  0
  6 19  1  0  0  0  0
  6 20  1  0  0  0  0
  6 39  1  0  0  0  0
  7  8  1  0  0  0  0
  7  9  2  0  0  0  0
  7 11  1  0  0  0  0
  8 13  2  0  0  0  0
  8 14  1  0  0  0  0
  9 10  1  0  0  0  0
 10 12  1  0  0  0  0
 11 16  2  0  0  0  0
 11 29  1  0  0  0  0
 12 16  1  0  0  0  0
 13 17  1  0  0  0  0
 13 30  1  0  0  0  0
 14 18  2  0  0  0  0
 14 31  1  0  0  0  0
 15 17  2  0  0  0  0
 15 18  1  0  0  0  0
 16 32  1  0  0  0  0
 17 33  1  0  0  0  0
 18 34  1  0  0  0  0
 19 22  1  0  0  0  0
 19 23  2  0  0  0  0
 21 22  2  0  0  0  0
 21 26  1  0  0  0  0
 21 28  1  0  0  0  0
 22 38  1  0  0  0  0
 23 27  1  0  0  0  0
 23 40  1  0  0  0  0
 24 25  2  0  0  0  0
 24 41  1  0  0  0  0
 25 43  1  0  0  0  0
 26 27  2  0  0  0  0
 26 42  1  0  0  0  0
 27 44  1  0  0  0  0
 28 45  1  0  0  0  0
 28 46  1  0  0  0  0
 28 47  1  0  0  0  0
M  END
> <PUBCHEM_COMPOUND_CID>
44560751

> <PUBCHEM_COMPOUND_CANONICALIZED>
1

> <PUBCHEM_CACTVS_COMPLEXITY>
521

> <PUBCHEM_CACTVS_HBOND_ACCEPTOR>
4

> <PUBCHEM_CACTVS_HBOND_DONOR>
3

> <PUBCHEM_CACTVS_ROTATABLE_BOND>
3

> <PUBCHEM_CACTVS_SUBSKEYS>
AAADceB7oAAAAAAAAAAAAAAAAAAAAAAAAAA8YMEAAAAAAACx9AAAHgAQAAAADAjBHgQ/wLLIEACoAzRnVACCgCQxEiAI2CA4dJiIYOLA0dGUJAholALIyCcQgMAOiAAAQAQCACAQAACACAQAQAAAAAAAAA==

> <PUBCHEM_IUPAC_OPENEYE_NAME>
1-[4-(5-aminoquinoxalin-6-yl)phenyl]-3-(m-tolyl)urea

> <PUBCHEM_IUPAC_CAS_NAME>
1-[4-(5-amino-6-quinoxalinyl)phenyl]-3-(3-methylphenyl)urea

> <PUBCHEM_IUPAC_NAME_MARKUP>
1-[4-(5-aminoquinoxalin-6-yl)phenyl]-3-(3-methylphenyl)urea

> <PUBCHEM_IUPAC_NAME>
1-[4-(5-aminoquinoxalin-6-yl)phenyl]-3-(3-methylphenyl)urea

> <PUBCHEM_IUPAC_SYSTEMATIC_NAME>
1-[4-(5-azanylquinoxalin-6-yl)phenyl]-3-(3-methylphenyl)urea

> <PUBCHEM_IUPAC_TRADITIONAL_NAME>
1-[4-(5-aminoquinoxalin-6-yl)phenyl]-3-(m-tolyl)urea

> <PUBCHEM_IUPAC_INCHI>
InChI=1S/C22H19N5O/c1-14-3-2-4-17(13-14)27-22(28)26-16-7-5-15(6-8-16)18-9-10-19-21(20(18)23)25-12-11-24-19/h2-13H,23H2,1H3,(H2,26,27,28)

> <PUBCHEM_IUPAC_INCHIKEY>
FJZXDUKUMALHNP-UHFFFAOYSA-N

> <PUBCHEM_XLOGP3_AA>
3.1

> <PUBCHEM_EXACT_MASS>
369.15896025

> <PUBCHEM_MOLECULAR_FORMULA>
C22H19N5O

> <PUBCHEM_MOLECULAR_WEIGHT>
369.4

> <PUBCHEM_SMILES>
CC1=CC(=CC=C1)NC(=O)NC2=CC=C(C=C2)C3=C(C4=NC=CN=C4C=C3)N

> <PUBCHEM_OPENEYE_CAN_SMILES>
CC1=CC(=CC=C1)NC(=O)NC2=CC=C(C=C2)C3=C(C4=NC=CN=C4C=C3)N

> <PUBCHEM_OPENEYE_ISO_SMILES>
CC1=CC(=CC=C1)NC(=O)NC2=CC=C(C=C2)C3=C(C4=NC=CN=C4C=C3)N

> <PUBCHEM_CACTVS_TPSA>
92.9

> <PUBCHEM_MONOISOTOPIC_WEIGHT>
369.15896025

> <PUBCHEM_TOTAL_CHARGE>
0

> <PUBCHEM_HEAVY_ATOM_COUNT>
28

> <PUBCHEM_ATOM_DEF_STEREO_COUNT>
0

> <PUBCHEM_ATOM_UDEF_STEREO_COUNT>
0

> <PUBCHEM_BOND_DEF_STEREO_COUNT>
0

> <PUBCHEM_BOND_UDEF_STEREO_COUNT>
0

> <PUBCHEM_ISOTOPIC_ATOM_COUNT>
0

> <PUBCHEM_COMPONENT_COUNT>
1

> <PUBCHEM_CACTVS_TAUTO_COUNT>
-1

> <PUBCHEM_COORDINATE_TYPE>
1
5
255

> <PUBCHEM_BONDANNOTATIONS>
10  12  8
11  16  8
12  16  8
13  17  8
14  18  8
15  17  8
15  18  8
19  22  8
19  23  8
21  22  8
21  26  8
23  27  8
24  25  8
26  27  8
4  10  8
4  24  8
5  12  8
5  25  8
7  11  8
7  9  8
8  13  8
8  14  8
9  10  8

$$$$
