5328134
  -OEChem-03202505222D

 65 67  0     0  0  0  0  0  0999 V2000
    4.9544    3.2323    0.0000 Cl  0  0  0  0  0  0  0  0  0  0  0  0
    2.3008    1.0056    0.0000 Cl  0  0  0  0  0  0  0  0  0  0  0  0
    4.9545   -1.5265    0.0000 O   0  0  0  0  0  0  0  0  0  0  0  0
   12.9986    0.3120    0.0000 N   0  0  0  0  0  0  0  0  0  0  0  0
    8.6665   -0.1713    0.0000 N   0  0  0  0  0  0  0  0  0  0  0  0
    6.8964   -0.1818    0.0000 N   0  0  0  0  0  0  0  0  0  0  0  0
    7.8024    1.3737    0.0000 N   0  0  0  0  0  0  0  0  0  0  0  0
    5.1364   -0.1471    0.0000 N   0  0  0  0  0  0  0  0  0  0  0  0
    3.6276   -0.4131    0.0000 N   0  0  0  0  0  0  0  0  0  0  0  0
    3.3268   -2.1189    0.0000 N   0  0  0  0  0  0  0  0  0  0  0  0
   12.1306   -0.1846    0.0000 C   0  0  0  0  0  0  0  0  0  0  0  0
   11.2665    0.3187    0.0000 C   0  0  0  0  0  0  0  0  0  0  0  0
   10.3986   -0.1780    0.0000 C   0  0  0  0  0  0  0  0  0  0  0  0
   13.8626   -0.1913    0.0000 C   0  0  0  0  0  0  0  0  0  0  0  0
   13.0024    1.3120    0.0000 C   0  0  0  0  0  0  0  0  0  0  0  0
    9.5345    0.3254    0.0000 C   0  0  0  0  0  0  0  0  0  0  0  0
   14.7306    0.3054    0.0000 C   0  0  0  0  0  0  0  0  0  0  0  0
   13.8704    1.8087    0.0000 C   0  0  0  0  0  0  0  0  0  0  0  0
    7.8024    0.3321    0.0000 C   0  0  0  0  0  0  0  0  0  0  0  0
    6.0024    1.3529    0.0000 C   0  0  0  0  0  0  0  0  0  0  0  0
    6.0024    0.3529    0.0000 C   0  0  0  0  0  0  0  0  0  0  0  0
    4.2704    1.3529    0.0000 C   0  0  0  0  0  0  0  0  0  0  0  0
    5.1364    1.8529    0.0000 C   0  0  0  0  0  0  0  0  0  0  0  0
    4.2704    0.3529    0.0000 C   0  0  0  0  0  0  0  0  0  0  0  0
    6.8964    1.8875    0.0000 C   0  0  0  0  0  0  0  0  0  0  0  0
    3.6276    2.1189    0.0000 C   0  0  0  0  0  0  0  0  0  0  0  0
    3.9696    3.0586    0.0000 C   0  0  0  0  0  0  0  0  0  0  0  0
    2.6428    1.9454    0.0000 C   0  0  0  0  0  0  0  0  0  0  0  0
    3.3268    3.8246    0.0000 C   0  0  0  0  0  0  0  0  0  0  0  0
    2.0000    2.7113    0.0000 C   0  0  0  0  0  0  0  0  0  0  0  0
    3.9696   -1.3529    0.0000 C   0  0  0  0  0  0  0  0  0  0  0  0
    2.3420    3.6510    0.0000 C   0  0  0  0  0  0  0  0  0  0  0  0
    3.6689   -3.0586    0.0000 C   0  0  0  0  0  0  0  0  0  0  0  0
    3.0261   -3.8246    0.0000 C   0  0  0  0  0  0  0  0  0  0  0  0
   11.7303   -0.6580    0.0000 H   0  0  0  0  0  0  0  0  0  0  0  0
   12.5273   -0.6611    0.0000 H   0  0  0  0  0  0  0  0  0  0  0  0
   11.6669    0.7921    0.0000 H   0  0  0  0  0  0  0  0  0  0  0  0
   10.8698    0.7952    0.0000 H   0  0  0  0  0  0  0  0  0  0  0  0
    9.9982   -0.6514    0.0000 H   0  0  0  0  0  0  0  0  0  0  0  0
   10.7953   -0.6544    0.0000 H   0  0  0  0  0  0  0  0  0  0  0  0
   13.4623   -0.6647    0.0000 H   0  0  0  0  0  0  0  0  0  0  0  0
   14.2593   -0.6678    0.0000 H   0  0  0  0  0  0  0  0  0  0  0  0
   12.7926    1.8954    0.0000 H   0  0  0  0  0  0  0  0  0  0  0  0
   12.3914    1.2067    0.0000 H   0  0  0  0  0  0  0  0  0  0  0  0
    9.9348    0.7988    0.0000 H   0  0  0  0  0  0  0  0  0  0  0  0
    9.1378    0.8019    0.0000 H   0  0  0  0  0  0  0  0  0  0  0  0
   15.0385   -0.2328    0.0000 H   0  0  0  0  0  0  0  0  0  0  0  0
   15.2687    0.6133    0.0000 H   0  0  0  0  0  0  0  0  0  0  0  0
   14.4227    0.8435    0.0000 H   0  0  0  0  0  0  0  0  0  0  0  0
   14.1783    1.2706    0.0000 H   0  0  0  0  0  0  0  0  0  0  0  0
   14.4085    2.1166    0.0000 H   0  0  0  0  0  0  0  0  0  0  0  0
   13.5624    2.3468    0.0000 H   0  0  0  0  0  0  0  0  0  0  0  0
    8.6641   -0.7913    0.0000 H   0  0  0  0  0  0  0  0  0  0  0  0
    5.1364    2.4729    0.0000 H   0  0  0  0  0  0  0  0  0  0  0  0
    6.8892    2.5075    0.0000 H   0  0  0  0  0  0  0  0  0  0  0  0
    3.0170   -0.3054    0.0000 H   0  0  0  0  0  0  0  0  0  0  0  0
    3.5389    4.4073    0.0000 H   0  0  0  0  0  0  0  0  0  0  0  0
    1.3894    2.6036    0.0000 H   0  0  0  0  0  0  0  0  0  0  0  0
    1.9435    4.1259    0.0000 H   0  0  0  0  0  0  0  0  0  0  0  0
    2.7162   -2.0112    0.0000 H   0  0  0  0  0  0  0  0  0  0  0  0
    4.0674   -3.5336    0.0000 H   0  0  0  0  0  0  0  0  0  0  0  0
    4.2058   -2.7486    0.0000 H   0  0  0  0  0  0  0  0  0  0  0  0
    2.5511   -3.4261    0.0000 H   0  0  0  0  0  0  0  0  0  0  0  0
    2.6276   -4.2996    0.0000 H   0  0  0  0  0  0  0  0  0  0  0  0
    3.5010   -4.2232    0.0000 H   0  0  0  0  0  0  0  0  0  0  0  0
  1 27  1  0  0  0  0
  2 28  1  0  0  0  0
  3 31  2  0  0  0  0
  4 11  1  0  0  0  0
  4 14  1  0  0  0  0
  4 15  1  0  0  0  0
  5 16  1  0  0  0  0
  5 19  1  0  0  0  0
  5 53  1  0  0  0  0
  6 19  2  0  0  0  0
  6 21  1  0  0  0  0
  7 19  1  0  0  0  0
  7 25  2  0  0  0  0
  8 21  2  0  0  0  0
  8 24  1  0  0  0  0
  9 24  1  0  0  0  0
  9 31  1  0  0  0  0
  9 56  1  0  0  0  0
 10 31  1  0  0  0  0
 10 33  1  0  0  0  0
 10 60  1  0  0  0  0
 11 12  1  0  0  0  0
 11 35  1  0  0  0  0
 11 36  1  0  0  0  0
 12 13  1  0  0  0  0
 12 37  1  0  0  0  0
 12 38  1  0  0  0  0
 13 16  1  0  0  0  0
 13 39  1  0  0  0  0
 13 40  1  0  0  0  0
 14 17  1  0  0  0  0
 14 41  1  0  0  0  0
 14 42  1  0  0  0  0
 15 18  1  0  0  0  0
 15 43  1  0  0  0  0
 15 44  1  0  0  0  0
 16 45  1  0  0  0  0
 16 46  1  0  0  0  0
 17 47  1  0  0  0  0
 17 48  1  0  0  0  0
 17 49  1  0  0  0  0
 18 50  1  0  0  0  0
 18 51  1  0  0  0  0
 18 52  1  0  0  0  0
 20 21  1  0  0  0  0
 20 23  2  0  0  0  0
 20 25  1  0  0  0  0
 22 23  1  0  0  0  0
 22 24  2  0  0  0  0
 22 26  1  0  0  0  0
 23 54  1  0  0  0  0
 25 55  1  0  0  0  0
 26 27  2  0  0  0  0
 26 28  1  0  0  0  0
 27 29  1  0  0  0  0
 28 30  2  0  0  0  0
 29 32  2  0  0  0  0
 29 57  1  0  0  0  0
 30 32  1  0  0  0  0
 30 58  1  0  0  0  0
 32 59  1  0  0  0  0
 33 34  1  0  0  0  0
 33 61  1  0  0  0  0
 33 62  1  0  0  0  0
 34 63  1  0  0  0  0
 34 64  1  0  0  0  0
 34 65  1  0  0  0  0
M  END
> <PUBCHEM_COMPOUND_CID>
5328134

> <PUBCHEM_COMPOUND_CANONICALIZED>
1

> <PUBCHEM_CACTVS_COMPLEXITY>
602

> <PUBCHEM_CACTVS_HBOND_ACCEPTOR>
6

> <PUBCHEM_CACTVS_HBOND_DONOR>
3

> <PUBCHEM_CACTVS_ROTATABLE_BOND>
11

> <PUBCHEM_CACTVS_SUBSKEYS>
AAADceB7oAAGAAAAAAAAAAAAAAAAAAAAAAA8WIAAAAAAAACx/AAAHgIQAAAADALBGyQ/sN/IEACoAjJndACCgCkxBaAJ2KAoRpiIKOLB29GEJAholwLIyCcQgMAOgAAAAACBAAAAAAAAAQIAAAAAAAAAAA==

> <PUBCHEM_IUPAC_OPENEYE_NAME>
1-[6-(2,6-dichlorophenyl)-2-[4-(diethylamino)butylamino]pyrido[2,3-d]pyrimidin-7-yl]-3-ethyl-urea

> <PUBCHEM_IUPAC_CAS_NAME>
1-[6-(2,6-dichlorophenyl)-2-[4-(diethylamino)butylamino]-7-pyrido[2,3-d]pyrimidinyl]-3-ethylurea

> <PUBCHEM_IUPAC_NAME_MARKUP>
1-[6-(2,6-dichlorophenyl)-2-[4-(diethylamino)butylamino]pyrido[2,3-d]pyrimidin-7-yl]-3-ethylurea

> <PUBCHEM_IUPAC_NAME>
1-[6-(2,6-dichlorophenyl)-2-[4-(diethylamino)butylamino]pyrido[2,3-d]pyrimidin-7-yl]-3-ethylurea

> <PUBCHEM_IUPAC_SYSTEMATIC_NAME>
1-[6-[2,6-bis(chloranyl)phenyl]-2-[4-(diethylamino)butylamino]pyrido[2,3-d]pyrimidin-7-yl]-3-ethyl-urea

> <PUBCHEM_IUPAC_TRADITIONAL_NAME>
1-[6-(2,6-dichlorophenyl)-2-[4-(diethylamino)butylamino]pyrido[2,3-d]pyrimidin-7-yl]-3-ethyl-urea

> <PUBCHEM_IUPAC_INCHI>
InChI=1S/C24H31Cl2N7O/c1-4-27-24(34)32-22-17(20-18(25)10-9-11-19(20)26)14-16-15-29-23(31-21(16)30-22)28-12-7-8-13-33(5-2)6-3/h9-11,14-15H,4-8,12-13H2,1-3H3,(H3,27,28,29,30,31,32,34)

> <PUBCHEM_IUPAC_INCHIKEY>
GCTRVFZGBTUDPW-UHFFFAOYSA-N

> <PUBCHEM_XLOGP3_AA>
5.2

> <PUBCHEM_EXACT_MASS>
503.1967140

> <PUBCHEM_MOLECULAR_FORMULA>
C24H31Cl2N7O

> <PUBCHEM_MOLECULAR_WEIGHT>
504.5

> <PUBCHEM_SMILES>
CCNC(=O)NC1=C(C=C2C=NC(=NC2=N1)NCCCCN(CC)CC)C3=C(C=CC=C3Cl)Cl

> <PUBCHEM_OPENEYE_CAN_SMILES>
CCNC(=O)NC1=C(C=C2C=NC(=NC2=N1)NCCCCN(CC)CC)C3=C(C=CC=C3Cl)Cl

> <PUBCHEM_OPENEYE_ISO_SMILES>
CCNC(=O)NC1=C(C=C2C=NC(=NC2=N1)NCCCCN(CC)CC)C3=C(C=CC=C3Cl)Cl

> <PUBCHEM_CACTVS_TPSA>
95.1

> <PUBCHEM_MONOISOTOPIC_WEIGHT>
503.1967140

> <PUBCHEM_TOTAL_CHARGE>
0

> <PUBCHEM_HEAVY_ATOM_COUNT>
34

> <PUBCHEM_ATOM_DEF_STEREO_COUNT>
0

> <PUBCHEM_ATOM_UDEF_STEREO_COUNT>
0

> <PUBCHEM_BOND_DEF_STEREO_COUNT>
0

> <PUBCHEM_BOND_UDEF_STEREO_COUNT>
0

> <PUBCHEM_ISOTOPIC_ATOM_COUNT>
0

> <PUBCHEM_COMPONENT_COUNT>
1

> <PUBCHEM_CACTVS_TAUTO_COUNT>
-1

> <PUBCHEM_COORDINATE_TYPE>
1
5
255

> <PUBCHEM_BONDANNOTATIONS>
20  21  8
20  23  8
20  25  8
22  23  8
22  24  8
26  27  8
26  28  8
27  29  8
28  30  8
29  32  8
30  32  8
6  19  8
6  21  8
7  19  8
7  25  8
8  21  8
8  24  8

$$$$
