11719421
  -OEChem-03202506202D

 65 69  0     0  0  0  0  0  0999 V2000
   12.4660   -0.7125    0.0000 O   0  0  0  0  0  0  0  0  0  0  0  0
   15.0621   -0.2025    0.0000 N   0  0  0  0  0  0  0  0  0  0  0  0
    8.9942    1.2741    0.0000 N   0  0  0  0  0  0  0  0  0  0  0  0
    7.2241    1.2847    0.0000 N   0  0  0  0  0  0  0  0  0  0  0  0
    7.2241   -0.7847    0.0000 N   0  0  0  0  0  0  0  0  0  0  0  0
    8.1301   -0.2708    0.0000 N   0  0  0  0  0  0  0  0  0  0  0  0
   15.9772   -0.6057    0.0000 C   0  0  0  0  0  0  0  0  0  0  0  0
   15.1628    0.7924    0.0000 C   0  0  0  0  0  0  0  0  0  0  0  0
   16.6435    0.1400    0.0000 C   0  0  0  0  0  0  0  0  0  0  0  0
   16.1402    1.0041    0.0000 C   0  0  0  0  0  0  0  0  0  0  0  0
   14.1981   -0.7058    0.0000 C   0  0  0  0  0  0  0  0  0  0  0  0
   13.3301   -0.2091    0.0000 C   0  0  0  0  0  0  0  0  0  0  0  0
   11.5981   -0.2158    0.0000 C   0  0  0  0  0  0  0  0  0  0  0  0
    3.7320   -0.7500    0.0000 C   0  0  0  0  0  0  0  0  0  0  0  0
    4.5981   -0.2500    0.0000 C   0  0  0  0  0  0  0  0  0  0  0  0
    3.7320   -1.7500    0.0000 C   0  0  0  0  0  0  0  0  0  0  0  0
    2.8660   -0.2500    0.0000 C   0  0  0  0  0  0  0  0  0  0  0  0
    5.4641    1.2500    0.0000 C   0  0  0  0  0  0  0  0  0  0  0  0
   11.5942    0.7842    0.0000 C   0  0  0  0  0  0  0  0  0  0  0  0
   10.7340   -0.7192    0.0000 C   0  0  0  0  0  0  0  0  0  0  0  0
    4.5981    0.7500    0.0000 C   0  0  0  0  0  0  0  0  0  0  0  0
    6.3301    0.7500    0.0000 C   0  0  0  0  0  0  0  0  0  0  0  0
    5.4641   -0.7500    0.0000 C   0  0  0  0  0  0  0  0  0  0  0  0
    6.3301   -0.2500    0.0000 C   0  0  0  0  0  0  0  0  0  0  0  0
    9.8622    0.7775    0.0000 C   0  0  0  0  0  0  0  0  0  0  0  0
   10.7263    1.2808    0.0000 C   0  0  0  0  0  0  0  0  0  0  0  0
    9.8660   -0.2225    0.0000 C   0  0  0  0  0  0  0  0  0  0  0  0
    2.8660   -2.2500    0.0000 C   0  0  0  0  0  0  0  0  0  0  0  0
    2.0000   -0.7500    0.0000 C   0  0  0  0  0  0  0  0  0  0  0  0
    4.5981   -2.2500    0.0000 C   0  0  0  0  0  0  0  0  0  0  0  0
    2.8660    0.7500    0.0000 C   0  0  0  0  0  0  0  0  0  0  0  0
    5.4641    2.2500    0.0000 C   0  0  0  0  0  0  0  0  0  0  0  0
    2.0000   -1.7500    0.0000 C   0  0  0  0  0  0  0  0  0  0  0  0
    8.1301    0.7708    0.0000 C   0  0  0  0  0  0  0  0  0  0  0  0
   15.6693   -1.1438    0.0000 H   0  0  0  0  0  0  0  0  0  0  0  0
   16.4802   -0.9682    0.0000 H   0  0  0  0  0  0  0  0  0  0  0  0
   15.0957    1.4088    0.0000 H   0  0  0  0  0  0  0  0  0  0  0  0
   14.5428    0.7901    0.0000 H   0  0  0  0  0  0  0  0  0  0  0  0
   17.0601   -0.3191    0.0000 H   0  0  0  0  0  0  0  0  0  0  0  0
   17.1437    0.5064    0.0000 H   0  0  0  0  0  0  0  0  0  0  0  0
   16.7056    1.2585    0.0000 H   0  0  0  0  0  0  0  0  0  0  0  0
   15.9463    1.5930    0.0000 H   0  0  0  0  0  0  0  0  0  0  0  0
   13.8014   -1.1823    0.0000 H   0  0  0  0  0  0  0  0  0  0  0  0
   14.5984   -1.1792    0.0000 H   0  0  0  0  0  0  0  0  0  0  0  0
   13.7268    0.2673    0.0000 H   0  0  0  0  0  0  0  0  0  0  0  0
   12.9297    0.2643    0.0000 H   0  0  0  0  0  0  0  0  0  0  0  0
    4.0611    1.0600    0.0000 H   0  0  0  0  0  0  0  0  0  0  0  0
   12.1299    1.0962    0.0000 H   0  0  0  0  0  0  0  0  0  0  0  0
   10.7364   -1.3392    0.0000 H   0  0  0  0  0  0  0  0  0  0  0  0
    5.4641   -1.3700    0.0000 H   0  0  0  0  0  0  0  0  0  0  0  0
   10.7239    1.9008    0.0000 H   0  0  0  0  0  0  0  0  0  0  0  0
    9.3303   -0.5346    0.0000 H   0  0  0  0  0  0  0  0  0  0  0  0
    2.8660   -2.8700    0.0000 H   0  0  0  0  0  0  0  0  0  0  0  0
    1.4631   -0.4400    0.0000 H   0  0  0  0  0  0  0  0  0  0  0  0
    4.2881   -2.7869    0.0000 H   0  0  0  0  0  0  0  0  0  0  0  0
    5.1350   -2.5600    0.0000 H   0  0  0  0  0  0  0  0  0  0  0  0
    4.9081   -1.7131    0.0000 H   0  0  0  0  0  0  0  0  0  0  0  0
    3.4860    0.7500    0.0000 H   0  0  0  0  0  0  0  0  0  0  0  0
    2.8660    1.3700    0.0000 H   0  0  0  0  0  0  0  0  0  0  0  0
    2.2460    0.7500    0.0000 H   0  0  0  0  0  0  0  0  0  0  0  0
    6.0841    2.2500    0.0000 H   0  0  0  0  0  0  0  0  0  0  0  0
    5.4641    2.8700    0.0000 H   0  0  0  0  0  0  0  0  0  0  0  0
    4.8441    2.2500    0.0000 H   0  0  0  0  0  0  0  0  0  0  0  0
    1.4631   -2.0600    0.0000 H   0  0  0  0  0  0  0  0  0  0  0  0
    8.9918    1.8942    0.0000 H   0  0  0  0  0  0  0  0  0  0  0  0
  1 12  1  0  0  0  0
  1 13  1  0  0  0  0
  2  7  1  0  0  0  0
  2  8  1  0  0  0  0
  2 11  1  0  0  0  0
  3 25  1  0  0  0  0
  3 34  1  0  0  0  0
  3 65  1  0  0  0  0
  4 22  1  0  0  0  0
  4 34  2  0  0  0  0
  5  6  2  0  0  0  0
  5 24  1  0  0  0  0
  6 34  1  0  0  0  0
  7  9  1  0  0  0  0
  7 35  1  0  0  0  0
  7 36  1  0  0  0  0
  8 10  1  0  0  0  0
  8 37  1  0  0  0  0
  8 38  1  0  0  0  0
  9 10  1  0  0  0  0
  9 39  1  0  0  0  0
  9 40  1  0  0  0  0
 10 41  1  0  0  0  0
 10 42  1  0  0  0  0
 11 12  1  0  0  0  0
 11 43  1  0  0  0  0
 11 44  1  0  0  0  0
 12 45  1  0  0  0  0
 12 46  1  0  0  0  0
 13 19  2  0  0  0  0
 13 20  1  0  0  0  0
 14 15  1  0  0  0  0
 14 16  2  0  0  0  0
 14 17  1  0  0  0  0
 15 21  1  0  0  0  0
 15 23  2  0  0  0  0
 16 28  1  0  0  0  0
 16 30  1  0  0  0  0
 17 29  2  0  0  0  0
 17 31  1  0  0  0  0
 18 21  2  0  0  0  0
 18 22  1  0  0  0  0
 18 32  1  0  0  0  0
 19 26  1  0  0  0  0
 19 48  1  0  0  0  0
 20 27  2  0  0  0  0
 20 49  1  0  0  0  0
 21 47  1  0  0  0  0
 22 24  2  0  0  0  0
 23 24  1  0  0  0  0
 23 50  1  0  0  0  0
 25 26  2  0  0  0  0
 25 27  1  0  0  0  0
 26 51  1  0  0  0  0
 27 52  1  0  0  0  0
 28 33  2  0  0  0  0
 28 53  1  0  0  0  0
 29 33  1  0  0  0  0
 29 54  1  0  0  0  0
 30 55  1  0  0  0  0
 30 56  1  0  0  0  0
 30 57  1  0  0  0  0
 31 58  1  0  0  0  0
 31 59  1  0  0  0  0
 31 60  1  0  0  0  0
 32 61  1  0  0  0  0
 32 62  1  0  0  0  0
 32 63  1  0  0  0  0
 33 64  1  0  0  0  0
M  END
> <PUBCHEM_COMPOUND_CID>
11719421

> <PUBCHEM_COMPOUND_CANONICALIZED>
1

> <PUBCHEM_CACTVS_COMPLEXITY>
610

> <PUBCHEM_CACTVS_HBOND_ACCEPTOR>
6

> <PUBCHEM_CACTVS_HBOND_DONOR>
1

> <PUBCHEM_CACTVS_ROTATABLE_BOND>
7

> <PUBCHEM_CACTVS_SUBSKEYS>
AAADceB7oAAAAAAAAAAAAAAAAAAAAWAAAAA8YMEAAAAAAACx9AAAHgAYAAAADAzhngYz1rfIFACiAyRiZACSjC8hMqAdmCA+fJiObqLEuZuXuCj82BPY6CewwMAOiEACQAASACAQgASAACQAQAAAAAAAAA==

> <PUBCHEM_IUPAC_OPENEYE_NAME>
7-(2,6-dimethylphenyl)-5-methyl-N-[4-(2-pyrrolidin-1-ylethoxy)phenyl]-1,2,4-benzotriazin-3-amine

> <PUBCHEM_IUPAC_CAS_NAME>
7-(2,6-dimethylphenyl)-5-methyl-N-[4-[2-(1-pyrrolidinyl)ethoxy]phenyl]-1,2,4-benzotriazin-3-amine

> <PUBCHEM_IUPAC_NAME_MARKUP>
7-(2,6-dimethylphenyl)-5-methyl-<I>N</I>-[4-(2-pyrrolidin-1-ylethoxy)phenyl]-1,2,4-benzotriazin-3-amine

> <PUBCHEM_IUPAC_NAME>
7-(2,6-dimethylphenyl)-5-methyl-N-[4-(2-pyrrolidin-1-ylethoxy)phenyl]-1,2,4-benzotriazin-3-amine

> <PUBCHEM_IUPAC_SYSTEMATIC_NAME>
7-(2,6-dimethylphenyl)-5-methyl-N-[4-(2-pyrrolidin-1-ylethoxy)phenyl]-1,2,4-benzotriazin-3-amine

> <PUBCHEM_IUPAC_TRADITIONAL_NAME>
[7-(2,6-dimethylphenyl)-5-methyl-1,2,4-benzotriazin-3-yl]-[4-(2-pyrrolidinoethoxy)phenyl]amine

> <PUBCHEM_IUPAC_INCHI>
InChI=1S/C28H31N5O/c1-19-7-6-8-20(2)26(19)22-17-21(3)27-25(18-22)31-32-28(30-27)29-23-9-11-24(12-10-23)34-16-15-33-13-4-5-14-33/h6-12,17-18H,4-5,13-16H2,1-3H3,(H,29,30,32)

> <PUBCHEM_IUPAC_INCHIKEY>
YJSFAHMGDRBZGH-UHFFFAOYSA-N

> <PUBCHEM_XLOGP3_AA>
5.7

> <PUBCHEM_EXACT_MASS>
453.25286063

> <PUBCHEM_MOLECULAR_FORMULA>
C28H31N5O

> <PUBCHEM_MOLECULAR_WEIGHT>
453.6

> <PUBCHEM_SMILES>
CC1=C(C(=CC=C1)C)C2=CC3=C(C(=C2)C)N=C(N=N3)NC4=CC=C(C=C4)OCCN5CCCC5

> <PUBCHEM_OPENEYE_CAN_SMILES>
CC1=C(C(=CC=C1)C)C2=CC3=C(C(=C2)C)N=C(N=N3)NC4=CC=C(C=C4)OCCN5CCCC5

> <PUBCHEM_OPENEYE_ISO_SMILES>
CC1=C(C(=CC=C1)C)C2=CC3=C(C(=C2)C)N=C(N=N3)NC4=CC=C(C=C4)OCCN5CCCC5

> <PUBCHEM_CACTVS_TPSA>
63.2

> <PUBCHEM_MONOISOTOPIC_WEIGHT>
453.25286063

> <PUBCHEM_TOTAL_CHARGE>
0

> <PUBCHEM_HEAVY_ATOM_COUNT>
34

> <PUBCHEM_ATOM_DEF_STEREO_COUNT>
0

> <PUBCHEM_ATOM_UDEF_STEREO_COUNT>
0

> <PUBCHEM_BOND_DEF_STEREO_COUNT>
0

> <PUBCHEM_BOND_UDEF_STEREO_COUNT>
0

> <PUBCHEM_ISOTOPIC_ATOM_COUNT>
0

> <PUBCHEM_COMPONENT_COUNT>
1

> <PUBCHEM_CACTVS_TAUTO_COUNT>
-1

> <PUBCHEM_COORDINATE_TYPE>
1
5
255

> <PUBCHEM_BONDANNOTATIONS>
13  19  8
13  20  8
14  16  8
14  17  8
15  21  8
15  23  8
16  28  8
17  29  8
18  21  8
18  22  8
19  26  8
20  27  8
22  24  8
23  24  8
25  26  8
25  27  8
28  33  8
29  33  8
4  22  8
4  34  8
5  24  8
5  6  8
6  34  8

$$$$
