49830308
  -OEChem-03202503332D

 53 56  0     0  0  0  0  0  0999 V2000
    7.2566   -1.8778    0.0000 Cl  0  0  0  0  0  0  0  0  0  0  0  0
    3.5602    3.5385    0.0000 O   0  0  0  0  0  0  0  0  0  0  0  0
    3.9639   -0.8016    0.0000 N   0  0  0  0  0  0  0  0  0  0  0  0
    5.2066    3.0004    0.0000 N   0  0  0  0  0  0  0  0  0  0  0  0
    4.3211   -2.4965    0.0000 N   0  0  0  0  0  0  0  0  0  0  0  0
    5.6103   -1.3397    0.0000 N   0  0  0  0  0  0  0  0  0  0  0  0
    4.1815    5.4396    0.0000 N   0  0  0  0  0  0  0  0  0  0  0  0
    4.6783   -5.8008    0.0000 N   0  0  0  0  0  0  0  0  0  0  0  0
    2.8660   -5.9960    0.0000 N   0  0  0  0  0  0  0  0  0  0  0  0
    4.2746    0.1489    0.0000 C   0  0  0  0  0  0  0  0  0  0  0  0
    4.8959    2.0499    0.0000 C   0  0  0  0  0  0  0  0  0  0  0  0
    5.2531    0.3551    0.0000 C   0  0  0  0  0  0  0  0  0  0  0  0
    3.6067    0.8932    0.0000 C   0  0  0  0  0  0  0  0  0  0  0  0
    5.5637    1.3056    0.0000 C   0  0  0  0  0  0  0  0  0  0  0  0
    3.9174    1.8437    0.0000 C   0  0  0  0  0  0  0  0  0  0  0  0
    4.5387    3.7447    0.0000 C   0  0  0  0  0  0  0  0  0  0  0  0
    4.6318   -1.5460    0.0000 C   0  0  0  0  0  0  0  0  0  0  0  0
    4.8494    4.6953    0.0000 C   0  0  0  0  0  0  0  0  0  0  0  0
    4.9889   -3.2408    0.0000 C   0  0  0  0  0  0  0  0  0  0  0  0
    4.6783   -4.1913    0.0000 C   0  0  0  0  0  0  0  0  0  0  0  0
    6.2781   -2.0840    0.0000 C   0  0  0  0  0  0  0  0  0  0  0  0
    5.9674   -3.0346    0.0000 C   0  0  0  0  0  0  0  0  0  0  0  0
    3.7320   -4.4960    0.0000 C   0  0  0  0  0  0  0  0  0  0  0  0
    5.2619   -4.9960    0.0000 C   0  0  0  0  0  0  0  0  0  0  0  0
    3.7320   -5.4960    0.0000 C   0  0  0  0  0  0  0  0  0  0  0  0
    4.4922    6.3901    0.0000 C   0  0  0  0  0  0  0  0  0  0  0  0
    2.8660   -3.9960    0.0000 C   0  0  0  0  0  0  0  0  0  0  0  0
    2.0000   -4.4960    0.0000 C   0  0  0  0  0  0  0  0  0  0  0  0
    2.0000   -5.4960    0.0000 C   0  0  0  0  0  0  0  0  0  0  0  0
    4.6886   -0.3126    0.0000 H   0  0  0  0  0  0  0  0  0  0  0  0
    5.5026    2.1778    0.0000 H   0  0  0  0  0  0  0  0  0  0  0  0
    5.2736   -0.2646    0.0000 H   0  0  0  0  0  0  0  0  0  0  0  0
    5.8669    0.2677    0.0000 H   0  0  0  0  0  0  0  0  0  0  0  0
    3.0598    1.1852    0.0000 H   0  0  0  0  0  0  0  0  0  0  0  0
    3.2242    0.4053    0.0000 H   0  0  0  0  0  0  0  0  0  0  0  0
    6.1107    1.0136    0.0000 H   0  0  0  0  0  0  0  0  0  0  0  0
    5.9463    1.7935    0.0000 H   0  0  0  0  0  0  0  0  0  0  0  0
    3.8968    2.4634    0.0000 H   0  0  0  0  0  0  0  0  0  0  0  0
    3.3036    1.9310    0.0000 H   0  0  0  0  0  0  0  0  0  0  0  0
    3.3572   -0.9295    0.0000 H   0  0  0  0  0  0  0  0  0  0  0  0
    5.8132    3.1283    0.0000 H   0  0  0  0  0  0  0  0  0  0  0  0
    5.3963    4.4032    0.0000 H   0  0  0  0  0  0  0  0  0  0  0  0
    5.2319    5.1832    0.0000 H   0  0  0  0  0  0  0  0  0  0  0  0
    3.5749    5.3117    0.0000 H   0  0  0  0  0  0  0  0  0  0  0  0
    6.3815   -3.4960    0.0000 H   0  0  0  0  0  0  0  0  0  0  0  0
    5.8819   -4.9960    0.0000 H   0  0  0  0  0  0  0  0  0  0  0  0
    4.8709   -6.3901    0.0000 H   0  0  0  0  0  0  0  0  0  0  0  0
    5.0815    6.1975    0.0000 H   0  0  0  0  0  0  0  0  0  0  0  0
    4.6848    6.9794    0.0000 H   0  0  0  0  0  0  0  0  0  0  0  0
    3.9029    6.5827    0.0000 H   0  0  0  0  0  0  0  0  0  0  0  0
    2.8660   -3.3760    0.0000 H   0  0  0  0  0  0  0  0  0  0  0  0
    1.4631   -4.1860    0.0000 H   0  0  0  0  0  0  0  0  0  0  0  0
    1.4631   -5.8060    0.0000 H   0  0  0  0  0  0  0  0  0  0  0  0
  1 21  1  0  0  0  0
  2 16  2  0  0  0  0
  3 10  1  0  0  0  0
  3 17  1  0  0  0  0
  3 40  1  0  0  0  0
  4 11  1  0  0  0  0
  4 16  1  0  0  0  0
  4 41  1  0  0  0  0
  5 17  2  0  0  0  0
  5 19  1  0  0  0  0
  6 17  1  0  0  0  0
  6 21  2  0  0  0  0
  7 18  1  0  0  0  0
  7 26  1  0  0  0  0
  7 44  1  0  0  0  0
  8 24  1  0  0  0  0
  8 25  1  0  0  0  0
  8 47  1  0  0  0  0
  9 25  1  0  0  0  0
  9 29  2  0  0  0  0
 10 12  1  0  0  0  0
 10 13  1  0  0  0  0
 10 30  1  0  0  0  0
 11 14  1  0  0  0  0
 11 15  1  0  0  0  0
 11 31  1  0  0  0  0
 12 14  1  0  0  0  0
 12 32  1  0  0  0  0
 12 33  1  0  0  0  0
 13 15  1  0  0  0  0
 13 34  1  0  0  0  0
 13 35  1  0  0  0  0
 14 36  1  0  0  0  0
 14 37  1  0  0  0  0
 15 38  1  0  0  0  0
 15 39  1  0  0  0  0
 16 18  1  0  0  0  0
 18 42  1  0  0  0  0
 18 43  1  0  0  0  0
 19 20  1  0  0  0  0
 19 22  2  0  0  0  0
 20 23  1  0  0  0  0
 20 24  2  0  0  0  0
 21 22  1  0  0  0  0
 22 45  1  0  0  0  0
 23 25  2  0  0  0  0
 23 27  1  0  0  0  0
 24 46  1  0  0  0  0
 26 48  1  0  0  0  0
 26 49  1  0  0  0  0
 26 50  1  0  0  0  0
 27 28  2  0  0  0  0
 27 51  1  0  0  0  0
 28 29  1  0  0  0  0
 28 52  1  0  0  0  0
 29 53  1  0  0  0  0
M  END
> <PUBCHEM_COMPOUND_CID>
49830308

> <PUBCHEM_COMPOUND_CANONICALIZED>
1

> <PUBCHEM_CACTVS_COMPLEXITY>
545

> <PUBCHEM_CACTVS_HBOND_ACCEPTOR>
6

> <PUBCHEM_CACTVS_HBOND_DONOR>
4

> <PUBCHEM_CACTVS_ROTATABLE_BOND>
6

> <PUBCHEM_CACTVS_SUBSKEYS>
AAADceB7oAAEAAAAAAAAAAAAAAAAAWAAAAA8WIAAAAAAAFgB/gAAHgIQAAAADCrBnyQ/sN7JkACoAzd3dACCgCmxB6AJ2aC4ZpiIaOLB2/GUJAholgLIyCcQgIAOgAAAAAAAAAAAAQAAAAAAAAAAAAAAAA==

> <PUBCHEM_IUPAC_OPENEYE_NAME>
N-[4-[[4-chloro-6-(1H-pyrrolo[2,3-b]pyridin-3-yl)pyrimidin-2-yl]amino]cyclohexyl]-2-(methylamino)acetamide

> <PUBCHEM_IUPAC_CAS_NAME>
N-[4-[[4-chloro-6-(1H-pyrrolo[2,3-b]pyridin-3-yl)-2-pyrimidinyl]amino]cyclohexyl]-2-(methylamino)acetamide

> <PUBCHEM_IUPAC_NAME_MARKUP>
<I>N</I>-[4-[[4-chloro-6-(1<I>H</I>-pyrrolo[2,3-b]pyridin-3-yl)pyrimidin-2-yl]amino]cyclohexyl]-2-(methylamino)acetamide

> <PUBCHEM_IUPAC_NAME>
N-[4-[[4-chloro-6-(1H-pyrrolo[2,3-b]pyridin-3-yl)pyrimidin-2-yl]amino]cyclohexyl]-2-(methylamino)acetamide

> <PUBCHEM_IUPAC_SYSTEMATIC_NAME>
N-[4-[[4-chloranyl-6-(1H-pyrrolo[2,3-b]pyridin-3-yl)pyrimidin-2-yl]amino]cyclohexyl]-2-(methylamino)ethanamide

> <PUBCHEM_IUPAC_TRADITIONAL_NAME>
N-[4-[[4-chloro-6-(1H-pyrrolo[2,3-b]pyridin-3-yl)pyrimidin-2-yl]amino]cyclohexyl]-2-(methylamino)acetamide

> <PUBCHEM_IUPAC_INCHI>
InChI=1S/C20H24ClN7O/c1-22-11-18(29)25-12-4-6-13(7-5-12)26-20-27-16(9-17(21)28-20)15-10-24-19-14(15)3-2-8-23-19/h2-3,8-10,12-13,22H,4-7,11H2,1H3,(H,23,24)(H,25,29)(H,26,27,28)

> <PUBCHEM_IUPAC_INCHIKEY>
BGYVWFZMYBWCNY-UHFFFAOYSA-N

> <PUBCHEM_XLOGP3_AA>
2.8

> <PUBCHEM_EXACT_MASS>
413.1730861

> <PUBCHEM_MOLECULAR_FORMULA>
C20H24ClN7O

> <PUBCHEM_MOLECULAR_WEIGHT>
413.9

> <PUBCHEM_SMILES>
CNCC(=O)NC1CCC(CC1)NC2=NC(=CC(=N2)Cl)C3=CNC4=C3C=CC=N4

> <PUBCHEM_OPENEYE_CAN_SMILES>
CNCC(=O)NC1CCC(CC1)NC2=NC(=CC(=N2)Cl)C3=CNC4=C3C=CC=N4

> <PUBCHEM_OPENEYE_ISO_SMILES>
CNCC(=O)NC1CCC(CC1)NC2=NC(=CC(=N2)Cl)C3=CNC4=C3C=CC=N4

> <PUBCHEM_CACTVS_TPSA>
108

> <PUBCHEM_MONOISOTOPIC_WEIGHT>
413.1730861

> <PUBCHEM_TOTAL_CHARGE>
0

> <PUBCHEM_HEAVY_ATOM_COUNT>
29

> <PUBCHEM_ATOM_DEF_STEREO_COUNT>
0

> <PUBCHEM_ATOM_UDEF_STEREO_COUNT>
0

> <PUBCHEM_BOND_DEF_STEREO_COUNT>
0

> <PUBCHEM_BOND_UDEF_STEREO_COUNT>
0

> <PUBCHEM_ISOTOPIC_ATOM_COUNT>
0

> <PUBCHEM_COMPONENT_COUNT>
1

> <PUBCHEM_CACTVS_TAUTO_COUNT>
-1

> <PUBCHEM_COORDINATE_TYPE>
1
5
255

> <PUBCHEM_BONDANNOTATIONS>
19  22  8
20  23  8
20  24  8
21  22  8
23  25  8
23  27  8
27  28  8
28  29  8
5  17  8
5  19  8
6  17  8
6  21  8
8  24  8
8  25  8
9  25  8
9  29  8

$$$$
