24905220
  -OEChem-03202500012D

 39 42  0     0  0  0  0  0  0999 V2000
    6.3981   -2.4276    0.0000 Cl  0  0  0  0  0  0  0  0  0  0  0  0
    7.9730   -0.0956    0.0000 N   0  0  0  0  0  0  0  0  0  0  0  0
    7.3059   -0.8327    0.0000 N   0  0  0  0  0  0  0  0  0  0  0  0
    7.7903    1.7179    0.0000 N   0  0  0  0  0  0  0  0  0  0  0  0
    6.1440    2.2560    0.0000 N   0  0  0  0  0  0  0  0  0  0  0  0
    4.6660   -2.4276    0.0000 N   0  0  0  0  0  0  0  0  0  0  0  0
    4.8548    1.0992    0.0000 N   0  0  0  0  0  0  0  0  0  0  0  0
    8.9671   -0.2036    0.0000 C   0  0  0  0  0  0  0  0  0  0  0  0
    7.4796    0.7674    0.0000 C   0  0  0  0  0  0  0  0  0  0  0  0
    6.5011    0.5612    0.0000 C   0  0  0  0  0  0  0  0  0  0  0  0
    6.3981   -0.4276    0.0000 C   0  0  0  0  0  0  0  0  0  0  0  0
    5.5321   -0.9276    0.0000 C   0  0  0  0  0  0  0  0  0  0  0  0
    9.3707   -1.1186    0.0000 C   0  0  0  0  0  0  0  0  0  0  0  0
    9.5577    0.6034    0.0000 C   0  0  0  0  0  0  0  0  0  0  0  0
    5.8333    1.3055    0.0000 C   0  0  0  0  0  0  0  0  0  0  0  0
    4.6660   -0.4276    0.0000 C   0  0  0  0  0  0  0  0  0  0  0  0
    3.8000   -0.9276    0.0000 C   0  0  0  0  0  0  0  0  0  0  0  0
    5.5321   -1.9276    0.0000 C   0  0  0  0  0  0  0  0  0  0  0  0
    3.8000   -1.9276    0.0000 C   0  0  0  0  0  0  0  0  0  0  0  0
    7.1225    2.4622    0.0000 C   0  0  0  0  0  0  0  0  0  0  0  0
    2.9061   -0.3929    0.0000 C   0  0  0  0  0  0  0  0  0  0  0  0
    2.9061   -2.4622    0.0000 C   0  0  0  0  0  0  0  0  0  0  0  0
    2.0000   -0.9067    0.0000 C   0  0  0  0  0  0  0  0  0  0  0  0
    2.0000   -1.9484    0.0000 C   0  0  0  0  0  0  0  0  0  0  0  0
    8.6009   -0.7039    0.0000 H   0  0  0  0  0  0  0  0  0  0  0  0
    8.8034   -1.3688    0.0000 H   0  0  0  0  0  0  0  0  0  0  0  0
    9.6209   -1.6858    0.0000 H   0  0  0  0  0  0  0  0  0  0  0  0
    9.9380   -0.8684    0.0000 H   0  0  0  0  0  0  0  0  0  0  0  0
   10.0580    0.2372    0.0000 H   0  0  0  0  0  0  0  0  0  0  0  0
    9.9238    1.1037    0.0000 H   0  0  0  0  0  0  0  0  0  0  0  0
    9.0574    0.9695    0.0000 H   0  0  0  0  0  0  0  0  0  0  0  0
    4.6660    0.1924    0.0000 H   0  0  0  0  0  0  0  0  0  0  0  0
    7.3151    3.0515    0.0000 H   0  0  0  0  0  0  0  0  0  0  0  0
    2.9132    0.2271    0.0000 H   0  0  0  0  0  0  0  0  0  0  0  0
    4.4407    1.5607    0.0000 H   0  0  0  0  0  0  0  0  0  0  0  0
    4.6622    0.5099    0.0000 H   0  0  0  0  0  0  0  0  0  0  0  0
    2.9132   -3.0822    0.0000 H   0  0  0  0  0  0  0  0  0  0  0  0
    1.4643   -0.5947    0.0000 H   0  0  0  0  0  0  0  0  0  0  0  0
    1.4643   -2.2604    0.0000 H   0  0  0  0  0  0  0  0  0  0  0  0
  1 18  1  0  0  0  0
  2  3  1  0  0  0  0
  2  8  1  0  0  0  0
  2  9  1  0  0  0  0
  3 11  2  0  0  0  0
  4  9  2  0  0  0  0
  4 20  1  0  0  0  0
  5 15  1  0  0  0  0
  5 20  2  0  0  0  0
  6 18  2  0  0  0  0
  6 19  1  0  0  0  0
  7 15  1  0  0  0  0
  7 35  1  0  0  0  0
  7 36  1  0  0  0  0
  8 13  1  0  0  0  0
  8 14  1  0  0  0  0
  8 25  1  0  0  0  0
  9 10  1  0  0  0  0
 10 11  1  0  0  0  0
 10 15  2  0  0  0  0
 11 12  1  0  0  0  0
 12 16  2  0  0  0  0
 12 18  1  0  0  0  0
 13 26  1  0  0  0  0
 13 27  1  0  0  0  0
 13 28  1  0  0  0  0
 14 29  1  0  0  0  0
 14 30  1  0  0  0  0
 14 31  1  0  0  0  0
 16 17  1  0  0  0  0
 16 32  1  0  0  0  0
 17 19  1  0  0  0  0
 17 21  2  0  0  0  0
 19 22  2  0  0  0  0
 20 33  1  0  0  0  0
 21 23  1  0  0  0  0
 21 34  1  0  0  0  0
 22 24  1  0  0  0  0
 22 37  1  0  0  0  0
 23 24  2  0  0  0  0
 23 38  1  0  0  0  0
 24 39  1  0  0  0  0
M  END
> <PUBCHEM_COMPOUND_CID>
24905220

> <PUBCHEM_COMPOUND_CANONICALIZED>
1

> <PUBCHEM_CACTVS_COMPLEXITY>
449

> <PUBCHEM_CACTVS_HBOND_ACCEPTOR>
5

> <PUBCHEM_CACTVS_HBOND_DONOR>
1

> <PUBCHEM_CACTVS_ROTATABLE_BOND>
2

> <PUBCHEM_CACTVS_SUBSKEYS>
AAADccB7gAAEAAAAAAAAAAAAAAAAAWAAAAA8WIAAAAAAAFix/gAAHAIYAAAADCrBHyQ38P5IEACiAyZjZACShCsxhqAd2CA4ZpiIKOLB29GEpAhoiALIyCcQgMAOAAAAAAACAAAAAAAAAAQAAAAAAAAAAA==

> <PUBCHEM_IUPAC_OPENEYE_NAME>
3-(2-chloro-3-quinolyl)-1-isopropyl-pyrazolo[3,4-d]pyrimidin-4-amine

> <PUBCHEM_IUPAC_CAS_NAME>
3-(2-chloro-3-quinolinyl)-1-propan-2-yl-4-pyrazolo[3,4-d]pyrimidinamine

> <PUBCHEM_IUPAC_NAME_MARKUP>
3-(2-chloroquinolin-3-yl)-1-propan-2-ylpyrazolo[3,4-d]pyrimidin-4-amine

> <PUBCHEM_IUPAC_NAME>
3-(2-chloroquinolin-3-yl)-1-propan-2-ylpyrazolo[3,4-d]pyrimidin-4-amine

> <PUBCHEM_IUPAC_SYSTEMATIC_NAME>
3-(2-chloranylquinolin-3-yl)-1-propan-2-yl-pyrazolo[3,4-d]pyrimidin-4-amine

> <PUBCHEM_IUPAC_TRADITIONAL_NAME>
[3-(2-chloro-3-quinolyl)-1-isopropyl-pyrazolo[3,4-d]pyrimidin-4-yl]amine

> <PUBCHEM_IUPAC_INCHI>
InChI=1S/C17H15ClN6/c1-9(2)24-17-13(16(19)20-8-21-17)14(23-24)11-7-10-5-3-4-6-12(10)22-15(11)18/h3-9H,1-2H3,(H2,19,20,21)

> <PUBCHEM_IUPAC_INCHIKEY>
ICDLHJHOKRQIIV-UHFFFAOYSA-N

> <PUBCHEM_XLOGP3_AA>
3.4

> <PUBCHEM_EXACT_MASS>
338.1046722

> <PUBCHEM_MOLECULAR_FORMULA>
C17H15ClN6

> <PUBCHEM_MOLECULAR_WEIGHT>
338.8

> <PUBCHEM_SMILES>
CC(C)N1C2=NC=NC(=C2C(=N1)C3=CC4=CC=CC=C4N=C3Cl)N

> <PUBCHEM_OPENEYE_CAN_SMILES>
CC(C)N1C2=NC=NC(=C2C(=N1)C3=CC4=CC=CC=C4N=C3Cl)N

> <PUBCHEM_OPENEYE_ISO_SMILES>
CC(C)N1C2=NC=NC(=C2C(=N1)C3=CC4=CC=CC=C4N=C3Cl)N

> <PUBCHEM_CACTVS_TPSA>
82.5

> <PUBCHEM_MONOISOTOPIC_WEIGHT>
338.1046722

> <PUBCHEM_TOTAL_CHARGE>
0

> <PUBCHEM_HEAVY_ATOM_COUNT>
24

> <PUBCHEM_ATOM_DEF_STEREO_COUNT>
0

> <PUBCHEM_ATOM_UDEF_STEREO_COUNT>
0

> <PUBCHEM_BOND_DEF_STEREO_COUNT>
0

> <PUBCHEM_BOND_UDEF_STEREO_COUNT>
0

> <PUBCHEM_ISOTOPIC_ATOM_COUNT>
0

> <PUBCHEM_COMPONENT_COUNT>
1

> <PUBCHEM_CACTVS_TAUTO_COUNT>
-1

> <PUBCHEM_COORDINATE_TYPE>
1
5
255

> <PUBCHEM_BONDANNOTATIONS>
10  11  8
10  15  8
12  16  8
12  18  8
16  17  8
17  19  8
17  21  8
19  22  8
2  3  8
2  9  8
21  23  8
22  24  8
23  24  8
3  11  8
4  20  8
4  9  8
5  15  8
5  20  8
6  18  8
6  19  8
9  10  8

$$$$
