46905124
  -OEChem-03192523242D

 83 88  0     1  0  0  0  0  0999 V2000
    9.7927   -1.3856    0.0000 O   0  0  0  0  0  0  0  0  0  0  0  0
   12.1591   -0.3646    0.0000 O   0  0  0  0  0  0  0  0  0  0  0  0
   11.6932   -2.9036    0.0000 O   0  0  0  0  0  0  0  0  0  0  0  0
   12.0602    0.1832    0.0000 O   0  0  0  0  0  0  0  0  0  0  0  0
    9.3803   -0.1831    0.0000 O   0  0  0  0  0  0  0  0  0  0  0  0
    8.5542   -1.3305    0.0000 O   0  0  0  0  0  0  0  0  0  0  0  0
   12.7663    1.1014    0.0000 O   0  0  0  0  0  0  0  0  0  0  0  0
    7.6294   -0.9996    0.0000 O   0  0  0  0  0  0  0  0  0  0  0  0
    7.2954   -0.3646    0.0000 O   0  0  0  0  0  0  0  0  0  0  0  0
    9.0310    2.9812    0.0000 O   0  0  0  0  0  0  0  0  0  0  0  0
    9.5903    3.1311    0.0000 O   0  0  0  0  0  0  0  0  0  0  0  0
    6.2998    2.1145    0.0000 O   0  0  0  0  0  0  0  0  0  0  0  0
   12.3890    3.7461    0.0000 O   0  0  0  0  0  0  0  0  0  0  0  0
   10.4105    4.2763    0.0000 O   0  0  0  0  0  0  0  0  0  0  0  0
    7.7482    3.5629    0.0000 O   0  0  0  0  0  0  0  0  0  0  0  0
    5.6144   -2.5581    0.0000 O   0  0  0  0  0  0  0  0  0  0  0  0
    8.6147   -4.2900    0.0000 O   0  0  0  0  0  0  0  0  0  0  0  0
    6.6146   -4.2902    0.0000 O   0  0  0  0  0  0  0  0  0  0  0  0
    5.7896    0.1807    0.0000 O   0  0  0  0  0  0  0  0  0  0  0  0
    3.8598   -0.3444    0.0000 O   0  0  0  0  0  0  0  0  0  0  0  0
    2.4401    1.0644    0.0000 O   0  0  0  0  0  0  0  0  0  0  0  0
    4.1703    4.2276    0.0000 O   0  0  0  0  0  0  0  0  0  0  0  0
    5.8450    3.7858    0.0000 O   0  0  0  0  0  0  0  0  0  0  0  0
   11.9003   -1.3305    0.0000 C   0  0  1  0  0  0  0  0  0  0  0  0
   11.1932   -2.0376    0.0000 C   0  0  1  0  0  0  0  0  0  0  0  0
   10.2272   -2.2964    0.0000 C   0  0  1  0  0  0  0  0  0  0  0  0
   11.3288   -0.4988    0.0000 C   0  0  2  0  0  0  0  0  0  0  0  0
   10.3200   -0.5251    0.0000 C   0  0  1  0  0  0  0  0  0  0  0  0
    9.2613   -2.0376    0.0000 C   0  0  0  0  0  0  0  0  0  0  0  0
   11.9003    0.6014    0.0000 C   0  0  0  0  0  0  0  0  0  0  0  0
   11.1932    1.3085    0.0000 C   0  0  0  0  0  0  0  0  0  0  0  0
    8.6142   -0.8259    0.0000 C   0  0  0  0  0  0  0  0  0  0  0  0
   10.2272    1.5673    0.0000 C   0  0  0  0  0  0  0  0  0  0  0  0
    8.2954   -0.3646    0.0000 C   0  0  0  0  0  0  0  0  0  0  0  0
    9.2613    1.3085    0.0000 C   0  0  0  0  0  0  0  0  0  0  0  0
    8.5542    0.6014    0.0000 C   0  0  0  0  0  0  0  0  0  0  0  0
   11.9410    2.0336    0.0000 C   0  0  0  0  0  0  0  0  0  0  0  0
    8.1143   -1.6918    0.0000 C   0  0  0  0  0  0  0  0  0  0  0  0
    9.9422    2.5691    0.0000 C   0  0  0  0  0  0  0  0  0  0  0  0
    9.0073    2.3186    0.0000 C   0  0  0  0  0  0  0  0  0  0  0  0
    7.5440    0.8554    0.0000 C   0  0  0  0  0  0  0  0  0  0  0  0
   11.6792    3.0418    0.0000 C   0  0  0  0  0  0  0  0  0  0  0  0
   10.6730    3.3113    0.0000 C   0  0  0  0  0  0  0  0  0  0  0  0
    7.2667    1.8594    0.0000 C   0  0  0  0  0  0  0  0  0  0  0  0
    8.0032    2.5960    0.0000 C   0  0  0  0  0  0  0  0  0  0  0  0
    8.6144   -2.5579    0.0000 C   0  0  0  0  0  0  0  0  0  0  0  0
    7.1143   -1.6920    0.0000 C   0  0  0  0  0  0  0  0  0  0  0  0
    6.6143   -2.5580    0.0000 C   0  0  0  0  0  0  0  0  0  0  0  0
    8.1146   -3.4240    0.0000 C   0  0  0  0  0  0  0  0  0  0  0  0
    7.1145   -3.4241    0.0000 C   0  0  0  0  0  0  0  0  0  0  0  0
    5.3349    1.8520    0.0000 C   0  0  0  0  0  0  0  0  0  0  0  0
    4.6250    2.5564    0.0000 C   0  0  0  0  0  0  0  0  0  0  0  0
    5.0798    0.8850    0.0000 C   0  0  0  0  0  0  0  0  0  0  0  0
    3.6601    2.2939    0.0000 C   0  0  0  0  0  0  0  0  0  0  0  0
    4.1149    0.6225    0.0000 C   0  0  0  0  0  0  0  0  0  0  0  0
    3.4050    1.3269    0.0000 C   0  0  0  0  0  0  0  0  0  0  0  0
    4.8801    3.5233    0.0000 C   0  0  0  0  0  0  0  0  0  0  0  0
   12.3817   -2.0311    0.0000 H   0  0  0  0  0  0  0  0  0  0  0  0
   11.8079   -2.1185    0.0000 H   0  0  0  0  0  0  0  0  0  0  0  0
   10.2272   -3.1464    0.0000 H   0  0  0  0  0  0  0  0  0  0  0  0
   11.0940    0.0751    0.0000 H   0  0  0  0  0  0  0  0  0  0  0  0
   10.4196    0.0868    0.0000 H   0  0  0  0  0  0  0  0  0  0  0  0
    8.6994   -2.2996    0.0000 H   0  0  0  0  0  0  0  0  0  0  0  0
    9.5713   -1.5007    0.0000 H   0  0  0  0  0  0  0  0  0  0  0  0
   11.3832   -3.4406    0.0000 H   0  0  0  0  0  0  0  0  0  0  0  0
   12.6531    0.0019    0.0000 H   0  0  0  0  0  0  0  0  0  0  0  0
   12.5380    1.8662    0.0000 H   0  0  0  0  0  0  0  0  0  0  0  0
    7.1107    0.4120    0.0000 H   0  0  0  0  0  0  0  0  0  0  0  0
    9.2344   -2.5578    0.0000 H   0  0  0  0  0  0  0  0  0  0  0  0
    6.8043   -1.1551    0.0000 H   0  0  0  0  0  0  0  0  0  0  0  0
    8.7625    3.5401    0.0000 H   0  0  0  0  0  0  0  0  0  0  0  0
    9.5434    3.7493    0.0000 H   0  0  0  0  0  0  0  0  0  0  0  0
   12.9872    3.5834    0.0000 H   0  0  0  0  0  0  0  0  0  0  0  0
   10.8472    4.7164    0.0000 H   0  0  0  0  0  0  0  0  0  0  0  0
    7.1499    3.7257    0.0000 H   0  0  0  0  0  0  0  0  0  0  0  0
    5.3044   -3.0952    0.0000 H   0  0  0  0  0  0  0  0  0  0  0  0
    8.3047   -4.8270    0.0000 H   0  0  0  0  0  0  0  0  0  0  0  0
    6.9247   -4.8271    0.0000 H   0  0  0  0  0  0  0  0  0  0  0  0
    3.2200    2.7306    0.0000 H   0  0  0  0  0  0  0  0  0  0  0  0
    6.3878    0.3435    0.0000 H   0  0  0  0  0  0  0  0  0  0  0  0
    3.2615   -0.5072    0.0000 H   0  0  0  0  0  0  0  0  0  0  0  0
    2.0000    1.5011    0.0000 H   0  0  0  0  0  0  0  0  0  0  0  0
    4.3285    4.8271    0.0000 H   0  0  0  0  0  0  0  0  0  0  0  0
  1 26  1  0  0  0  0
  1 28  1  0  0  0  0
  2 24  1  0  0  0  0
  2 30  1  0  0  0  0
 25  3  1  6  0  0  0
  3 65  1  0  0  0  0
 27  4  1  6  0  0  0
  4 66  1  0  0  0  0
 28  5  1  1  0  0  0
  5 32  1  0  0  0  0
  6 29  1  0  0  0  0
  6 34  1  0  0  0  0
  7 30  2  0  0  0  0
  8 32  2  0  0  0  0
  9 34  2  0  0  0  0
 10 39  1  0  0  0  0
 10 71  1  0  0  0  0
 11 40  1  0  0  0  0
 11 72  1  0  0  0  0
 12 44  1  0  0  0  0
 12 51  1  0  0  0  0
 13 42  1  0  0  0  0
 13 73  1  0  0  0  0
 14 43  1  0  0  0  0
 14 74  1  0  0  0  0
 15 45  1  0  0  0  0
 15 75  1  0  0  0  0
 16 48  1  0  0  0  0
 16 76  1  0  0  0  0
 17 49  1  0  0  0  0
 17 77  1  0  0  0  0
 18 50  1  0  0  0  0
 18 78  1  0  0  0  0
 19 53  1  0  0  0  0
 19 80  1  0  0  0  0
 20 55  1  0  0  0  0
 20 81  1  0  0  0  0
 21 56  1  0  0  0  0
 21 82  1  0  0  0  0
 22 57  1  0  0  0  0
 22 83  1  0  0  0  0
 23 57  2  0  0  0  0
 24 25  1  0  0  0  0
 24 27  1  0  0  0  0
 24 58  1  6  0  0  0
 25 26  1  0  0  0  0
 25 59  1  0  0  0  0
 26 29  1  0  0  0  0
 26 60  1  6  0  0  0
 27 28  1  0  0  0  0
 27 61  1  0  0  0  0
 28 62  1  0  0  0  0
 29 63  1  0  0  0  0
 29 64  1  0  0  0  0
 30 31  1  0  0  0  0
 31 33  1  0  0  0  0
 31 37  2  0  0  0  0
 32 38  1  0  0  0  0
 33 35  1  0  0  0  0
 33 39  2  0  0  0  0
 34 36  1  0  0  0  0
 35 36  1  0  0  0  0
 35 40  2  0  0  0  0
 36 41  2  0  0  0  0
 37 42  1  0  0  0  0
 37 67  1  0  0  0  0
 38 46  2  0  0  0  0
 38 47  1  0  0  0  0
 39 43  1  0  0  0  0
 40 45  1  0  0  0  0
 41 44  1  0  0  0  0
 41 68  1  0  0  0  0
 42 43  2  0  0  0  0
 44 45  2  0  0  0  0
 46 49  1  0  0  0  0
 46 69  1  0  0  0  0
 47 48  2  0  0  0  0
 47 70  1  0  0  0  0
 48 50  1  0  0  0  0
 49 50  2  0  0  0  0
 51 52  1  0  0  0  0
 51 53  2  0  0  0  0
 52 54  2  0  0  0  0
 52 57  1  0  0  0  0
 53 55  1  0  0  0  0
 54 56  1  0  0  0  0
 54 79  1  0  0  0  0
 55 56  2  0  0  0  0
M  END
> <PUBCHEM_COMPOUND_CID>
46905124

> <PUBCHEM_COMPOUND_CANONICALIZED>
1

> <PUBCHEM_CACTVS_COMPLEXITY>
1470

> <PUBCHEM_CACTVS_HBOND_ACCEPTOR>
23

> <PUBCHEM_CACTVS_HBOND_DONOR>
14

> <PUBCHEM_CACTVS_ROTATABLE_BOND>
6

> <PUBCHEM_CACTVS_SUBSKEYS>
AAADceB8PgAAAAAAAAAAAAAAAAAAAAAAAAA0YMGCAAAAAAABVAAAGgAACAAADBSwmAMwDoAABgCIAiDSCAACCAAkIAAAiAEGiMgdNzaGNRqieWOl4BUPuYfK7PzOoQABCAAYQABCAAIQADCAAAAAAAAAAA==

> <PUBCHEM_IUPAC_OPENEYE_NAME>
2-[[(1S,19R,21S,22R,23R)-6,7,8,11,12,22,23-heptahydroxy-3,16-dioxo-21-(3,4,5-trihydroxybenzoyl)oxy-2,17,20-trioxatetracyclo[17.3.1.04,9.010,15]tricosa-4,6,8,10,12,14-hexaen-13-yl]oxy]-3,4,5-trihydroxy-benzoic acid

> <PUBCHEM_IUPAC_CAS_NAME>
2-[[(1S,19R,21S,22R,23R)-6,7,8,11,12,22,23-heptahydroxy-3,16-dioxo-21-[oxo-(3,4,5-trihydroxyphenyl)methoxy]-2,17,20-trioxatetracyclo[17.3.1.04,9.010,15]tricosa-4,6,8,10,12,14-hexaen-13-yl]oxy]-3,4,5-trihydroxybenzoic acid

> <PUBCHEM_IUPAC_NAME_MARKUP>
2-[[(1<I>S</I>,19<I>R</I>,21<I>S</I>,22<I>R</I>,23<I>R</I>)-6,7,8,11,12,22,23-heptahydroxy-3,16-dioxo-21-(3,4,5-trihydroxybenzoyl)oxy-2,17,20-trioxatetracyclo[17.3.1.0<SUP>4,9</SUP>.0<SUP>10,15</SUP>]tricosa-4,6,8,10,12,14-hexaen-13-yl]oxy]-3,4,5-trihydroxybenzoic acid

> <PUBCHEM_IUPAC_NAME>
2-[[(1S,19R,21S,22R,23R)-6,7,8,11,12,22,23-heptahydroxy-3,16-dioxo-21-(3,4,5-trihydroxybenzoyl)oxy-2,17,20-trioxatetracyclo[17.3.1.04,9.010,15]tricosa-4,6,8,10,12,14-hexaen-13-yl]oxy]-3,4,5-trihydroxybenzoic acid

> <PUBCHEM_IUPAC_SYSTEMATIC_NAME>
2-[[(1S,19R,21S,22R,23R)-6,7,8,11,12,22,23-heptakis(oxidanyl)-3,16-bis(oxidanylidene)-21-[3,4,5-tris(oxidanyl)phenyl]carbonyloxy-2,17,20-trioxatetracyclo[17.3.1.04,9.010,15]tricosa-4,6,8,10,12,14-hexaen-13-yl]oxy]-3,4,5-tris(oxidanyl)benzoic acid

> <PUBCHEM_IUPAC_TRADITIONAL_NAME>
2-[[(1S,19R,21S,22R,23R)-21-galloyloxy-6,7,8,11,12,22,23-heptahydroxy-3,16-diketo-2,17,20-trioxatetracyclo[17.3.1.04,9.010,15]tricosa-4,6,8,10,12,14-hexaen-13-yl]oxy]-3,4,5-trihydroxy-benzoic acid

> <PUBCHEM_IUPAC_INCHI>
InChI=1S/C34H26O23/c35-11-1-7(2-12(36)19(11)39)31(50)57-34-27(47)29-23(43)16(55-34)6-53-32(51)9-5-15(54-28-10(30(48)49)4-14(38)21(41)26(28)46)22(42)25(45)18(9)17-8(33(52)56-29)3-13(37)20(40)24(17)44/h1-5,16,23,27,29,34-47H,6H2,(H,48,49)/t16-,23-,27-,29+,34+/m1/s1

> <PUBCHEM_IUPAC_INCHIKEY>
XFKDUNXJRVJLRK-GEFDNOIESA-N

> <PUBCHEM_XLOGP3_AA>
0.4

> <PUBCHEM_EXACT_MASS>
802.08648707

> <PUBCHEM_MOLECULAR_FORMULA>
C34H26O23

> <PUBCHEM_MOLECULAR_WEIGHT>
802.6

> <PUBCHEM_SMILES>
C1[C@@H]2[C@H]([C@@H]([C@H]([C@@H](O2)OC(=O)C3=CC(=C(C(=C3)O)O)O)O)OC(=O)C4=CC(=C(C(=C4C5=C(C(=C(C=C5C(=O)O1)OC6=C(C(=C(C=C6C(=O)O)O)O)O)O)O)O)O)O)O

> <PUBCHEM_OPENEYE_CAN_SMILES>
C1C2C(C(C(C(O2)OC(=O)C3=CC(=C(C(=C3)O)O)O)O)OC(=O)C4=CC(=C(C(=C4C5=C(C(=C(C=C5C(=O)O1)OC6=C(C(=C(C=C6C(=O)O)O)O)O)O)O)O)O)O)O

> <PUBCHEM_OPENEYE_ISO_SMILES>
C1[C@@H]2[C@H]([C@@H]([C@H]([C@@H](O2)OC(=O)C3=CC(=C(C(=C3)O)O)O)O)OC(=O)C4=CC(=C(C(=C4C5=C(C(=C(C=C5C(=O)O1)OC6=C(C(=C(C=C6C(=O)O)O)O)O)O)O)O)O)O)O

> <PUBCHEM_CACTVS_TPSA>
398

> <PUBCHEM_MONOISOTOPIC_WEIGHT>
802.08648707

> <PUBCHEM_TOTAL_CHARGE>
0

> <PUBCHEM_HEAVY_ATOM_COUNT>
57

> <PUBCHEM_ATOM_DEF_STEREO_COUNT>
5

> <PUBCHEM_ATOM_UDEF_STEREO_COUNT>
0

> <PUBCHEM_BOND_DEF_STEREO_COUNT>
0

> <PUBCHEM_BOND_UDEF_STEREO_COUNT>
0

> <PUBCHEM_ISOTOPIC_ATOM_COUNT>
0

> <PUBCHEM_COMPONENT_COUNT>
1

> <PUBCHEM_CACTVS_TAUTO_COUNT>
-1

> <PUBCHEM_COORDINATE_TYPE>
1
5
255

> <PUBCHEM_BONDANNOTATIONS>
24  58  6
26  60  6
25  3  6
31  33  8
31  37  8
33  39  8
35  36  8
35  40  8
36  41  8
37  42  8
38  46  8
38  47  8
39  43  8
27  4  6
40  45  8
41  44  8
42  43  8
44  45  8
46  49  8
47  48  8
48  50  8
49  50  8
28  5  5
51  52  8
51  53  8
52  54  8
53  55  8
54  56  8
55  56  8

$$$$
