24995524
  -OEChem-03202506362D

 43 46  0     0  0  0  0  0  0999 V2000
    2.0000   -3.1114    0.0000 Cl  0  0  0  0  0  0  0  0  0  0  0  0
    8.4106   -0.3593    0.0000 S   0  0  0  0  0  0  0  0  0  0  0  0
   12.8684    2.4292    0.0000 S   0  0  0  0  0  0  0  0  0  0  0  0
    6.5659   -2.7205    0.0000 O   0  0  0  0  0  0  0  0  0  0  0  0
   11.0562    1.2340    0.0000 N   0  0  0  0  0  0  0  0  0  0  0  0
   10.1901    2.7340    0.0000 N   0  0  0  0  0  0  0  0  0  0  0  0
    8.2414   -1.9685    0.0000 N   0  0  0  0  0  0  0  0  0  0  0  0
    6.7469   -0.9979    0.0000 N   0  0  0  0  0  0  0  0  0  0  0  0
   11.0562    4.2340    0.0000 N   0  0  0  0  0  0  0  0  0  0  0  0
    5.1646   -1.7024    0.0000 N   0  0  0  0  0  0  0  0  0  0  0  0
   10.1901   -0.2660    0.0000 C   0  0  0  0  0  0  0  0  0  0  0  0
   10.1901    0.7340    0.0000 C   0  0  0  0  0  0  0  0  0  0  0  0
    9.3241   -0.7660    0.0000 C   0  0  0  0  0  0  0  0  0  0  0  0
   11.0562    2.2340    0.0000 C   0  0  0  0  0  0  0  0  0  0  0  0
   11.9222    2.7340    0.0000 C   0  0  0  0  0  0  0  0  0  0  0  0
   11.9222    3.7340    0.0000 C   0  0  0  0  0  0  0  0  0  0  0  0
    9.2196   -1.7606    0.0000 C   0  0  0  0  0  0  0  0  0  0  0  0
    7.7414   -1.1024    0.0000 C   0  0  0  0  0  0  0  0  0  0  0  0
   12.8684    4.0387    0.0000 C   0  0  0  0  0  0  0  0  0  0  0  0
   13.4520    3.2340    0.0000 C   0  0  0  0  0  0  0  0  0  0  0  0
   10.1901    3.7340    0.0000 C   0  0  0  0  0  0  0  0  0  0  0  0
    4.5768   -2.5114    0.0000 C   0  0  0  0  0  0  0  0  0  0  0  0
    6.1591   -1.8069    0.0000 C   0  0  0  0  0  0  0  0  0  0  0  0
    3.5823   -2.4069    0.0000 C   0  0  0  0  0  0  0  0  0  0  0  0
    4.9836   -3.4250    0.0000 C   0  0  0  0  0  0  0  0  0  0  0  0
    2.9945   -3.2159    0.0000 C   0  0  0  0  0  0  0  0  0  0  0  0
    4.3958   -4.2340    0.0000 C   0  0  0  0  0  0  0  0  0  0  0  0
    3.4013   -4.1294    0.0000 C   0  0  0  0  0  0  0  0  0  0  0  0
   10.4022   -0.8486    0.0000 H   0  0  0  0  0  0  0  0  0  0  0  0
   10.8007   -0.1584    0.0000 H   0  0  0  0  0  0  0  0  0  0  0  0
    9.9781    1.3166    0.0000 H   0  0  0  0  0  0  0  0  0  0  0  0
    9.5796    0.6263    0.0000 H   0  0  0  0  0  0  0  0  0  0  0  0
   11.5931    0.9240    0.0000 H   0  0  0  0  0  0  0  0  0  0  0  0
    9.6803   -2.1754    0.0000 H   0  0  0  0  0  0  0  0  0  0  0  0
   13.0610    4.6280    0.0000 H   0  0  0  0  0  0  0  0  0  0  0  0
   14.0720    3.2340    0.0000 H   0  0  0  0  0  0  0  0  0  0  0  0
    6.4947   -0.4315    0.0000 H   0  0  0  0  0  0  0  0  0  0  0  0
    9.6532    4.0440    0.0000 H   0  0  0  0  0  0  0  0  0  0  0  0
    4.9124   -1.1360    0.0000 H   0  0  0  0  0  0  0  0  0  0  0  0
    3.3301   -1.8405    0.0000 H   0  0  0  0  0  0  0  0  0  0  0  0
    5.6002   -3.4898    0.0000 H   0  0  0  0  0  0  0  0  0  0  0  0
    4.6480   -4.8004    0.0000 H   0  0  0  0  0  0  0  0  0  0  0  0
    3.0368   -4.6310    0.0000 H   0  0  0  0  0  0  0  0  0  0  0  0
  1 26  1  0  0  0  0
  2 13  1  0  0  0  0
  2 18  1  0  0  0  0
  3 15  1  0  0  0  0
  3 20  1  0  0  0  0
  4 23  2  0  0  0  0
  5 12  1  0  0  0  0
  5 14  1  0  0  0  0
  5 33  1  0  0  0  0
  6 14  2  0  0  0  0
  6 21  1  0  0  0  0
  7 17  1  0  0  0  0
  7 18  2  0  0  0  0
  8 18  1  0  0  0  0
  8 23  1  0  0  0  0
  8 37  1  0  0  0  0
  9 16  1  0  0  0  0
  9 21  2  0  0  0  0
 10 22  1  0  0  0  0
 10 23  1  0  0  0  0
 10 39  1  0  0  0  0
 11 12  1  0  0  0  0
 11 13  1  0  0  0  0
 11 29  1  0  0  0  0
 11 30  1  0  0  0  0
 12 31  1  0  0  0  0
 12 32  1  0  0  0  0
 13 17  2  0  0  0  0
 14 15  1  0  0  0  0
 15 16  2  0  0  0  0
 16 19  1  0  0  0  0
 17 34  1  0  0  0  0
 19 20  2  0  0  0  0
 19 35  1  0  0  0  0
 20 36  1  0  0  0  0
 21 38  1  0  0  0  0
 22 24  2  0  0  0  0
 22 25  1  0  0  0  0
 24 26  1  0  0  0  0
 24 40  1  0  0  0  0
 25 27  2  0  0  0  0
 25 41  1  0  0  0  0
 26 28  2  0  0  0  0
 27 28  1  0  0  0  0
 27 42  1  0  0  0  0
 28 43  1  0  0  0  0
M  END
> <PUBCHEM_COMPOUND_CID>
24995524

> <PUBCHEM_COMPOUND_CANONICALIZED>
1

> <PUBCHEM_CACTVS_COMPLEXITY>
532

> <PUBCHEM_CACTVS_HBOND_ACCEPTOR>
7

> <PUBCHEM_CACTVS_HBOND_DONOR>
3

> <PUBCHEM_CACTVS_ROTATABLE_BOND>
6

> <PUBCHEM_CACTVS_SUBSKEYS>
AAADccB7oABkAAAAAAAAAAAAAAAAAWJAAAA8QAAAAAAAAFgB/gAAHgYQAAAACArFViS98bbIEAisATZndACD8KlxD7lJ2Lw4ZpiIKKLh29GEJAxolQLoyCcQAAAAAAAAAAIAAAAAAAAABAAAAAAAAAAAAA==

> <PUBCHEM_IUPAC_OPENEYE_NAME>
1-(3-chlorophenyl)-3-[5-[2-(thieno[3,2-d]pyrimidin-4-ylamino)ethyl]thiazol-2-yl]urea

> <PUBCHEM_IUPAC_CAS_NAME>
1-(3-chlorophenyl)-3-[5-[2-(4-thieno[3,2-d]pyrimidinylamino)ethyl]-2-thiazolyl]urea

> <PUBCHEM_IUPAC_NAME_MARKUP>
1-(3-chlorophenyl)-3-[5-[2-(thieno[3,2-d]pyrimidin-4-ylamino)ethyl]-1,3-thiazol-2-yl]urea

> <PUBCHEM_IUPAC_NAME>
1-(3-chlorophenyl)-3-[5-[2-(thieno[3,2-d]pyrimidin-4-ylamino)ethyl]-1,3-thiazol-2-yl]urea

> <PUBCHEM_IUPAC_SYSTEMATIC_NAME>
1-(3-chlorophenyl)-3-[5-[2-(thieno[3,2-d]pyrimidin-4-ylamino)ethyl]-1,3-thiazol-2-yl]urea

> <PUBCHEM_IUPAC_TRADITIONAL_NAME>
1-(3-chlorophenyl)-3-[5-[2-(thieno[3,2-d]pyrimidin-4-ylamino)ethyl]thiazol-2-yl]urea

> <PUBCHEM_IUPAC_INCHI>
InChI=1S/C18H15ClN6OS2/c19-11-2-1-3-12(8-11)24-17(26)25-18-21-9-13(28-18)4-6-20-16-15-14(5-7-27-15)22-10-23-16/h1-3,5,7-10H,4,6H2,(H,20,22,23)(H2,21,24,25,26)

> <PUBCHEM_IUPAC_INCHIKEY>
FAYAUAZLLLJJGH-UHFFFAOYSA-N

> <PUBCHEM_XLOGP3_AA>
4.2

> <PUBCHEM_EXACT_MASS>
430.0437292

> <PUBCHEM_MOLECULAR_FORMULA>
C18H15ClN6OS2

> <PUBCHEM_MOLECULAR_WEIGHT>
430.9

> <PUBCHEM_SMILES>
C1=CC(=CC(=C1)Cl)NC(=O)NC2=NC=C(S2)CCNC3=NC=NC4=C3SC=C4

> <PUBCHEM_OPENEYE_CAN_SMILES>
C1=CC(=CC(=C1)Cl)NC(=O)NC2=NC=C(S2)CCNC3=NC=NC4=C3SC=C4

> <PUBCHEM_OPENEYE_ISO_SMILES>
C1=CC(=CC(=C1)Cl)NC(=O)NC2=NC=C(S2)CCNC3=NC=NC4=C3SC=C4

> <PUBCHEM_CACTVS_TPSA>
148

> <PUBCHEM_MONOISOTOPIC_WEIGHT>
430.0437292

> <PUBCHEM_TOTAL_CHARGE>
0

> <PUBCHEM_HEAVY_ATOM_COUNT>
28

> <PUBCHEM_ATOM_DEF_STEREO_COUNT>
0

> <PUBCHEM_ATOM_UDEF_STEREO_COUNT>
0

> <PUBCHEM_BOND_DEF_STEREO_COUNT>
0

> <PUBCHEM_BOND_UDEF_STEREO_COUNT>
0

> <PUBCHEM_ISOTOPIC_ATOM_COUNT>
0

> <PUBCHEM_COMPONENT_COUNT>
1

> <PUBCHEM_CACTVS_TAUTO_COUNT>
-1

> <PUBCHEM_COORDINATE_TYPE>
1
5
255

> <PUBCHEM_BONDANNOTATIONS>
13  17  8
14  15  8
15  16  8
16  19  8
19  20  8
2  13  8
2  18  8
22  24  8
22  25  8
24  26  8
25  27  8
26  28  8
27  28  8
3  15  8
3  20  8
6  14  8
6  21  8
7  17  8
7  18  8
9  16  8
9  21  8

$$$$
