12553292
  -OEChem-03202504282D

 22 23  0     0  0  0  0  0  0999 V2000
    4.8535   -0.5193    0.0000 Cl  0  0  0  0  0  0  0  0  0  0  0  0
    3.0934    2.5292    0.0000 O   0  0  0  0  0  0  0  0  0  0  0  0
    6.3092    1.0975    0.0000 O   0  0  0  0  0  0  0  0  0  0  0  0
    2.8660    0.3656    0.0000 N   0  0  0  0  0  0  0  0  0  0  0  0
    4.8147    2.0680    0.0000 N   0  0  0  0  0  0  0  0  0  0  0  0
    3.7320    0.8656    0.0000 C   0  0  0  0  0  0  0  0  0  0  0  0
    2.8660   -0.6344    0.0000 C   0  0  0  0  0  0  0  0  0  0  0  0
    4.6456    0.4588    0.0000 C   0  0  0  0  0  0  0  0  0  0  0  0
    3.8366    1.8601    0.0000 C   0  0  0  0  0  0  0  0  0  0  0  0
    5.3147    1.2020    0.0000 C   0  0  0  0  0  0  0  0  0  0  0  0
    3.7320   -1.1344    0.0000 C   0  0  0  0  0  0  0  0  0  0  0  0
    2.0000   -1.1344    0.0000 C   0  0  0  0  0  0  0  0  0  0  0  0
    3.7320   -2.1344    0.0000 C   0  0  0  0  0  0  0  0  0  0  0  0
    2.0000   -2.1344    0.0000 C   0  0  0  0  0  0  0  0  0  0  0  0
    2.8660   -2.6344    0.0000 C   0  0  0  0  0  0  0  0  0  0  0  0
    2.3291    0.6756    0.0000 H   0  0  0  0  0  0  0  0  0  0  0  0
    5.0669    2.6344    0.0000 H   0  0  0  0  0  0  0  0  0  0  0  0
    4.2690   -0.8244    0.0000 H   0  0  0  0  0  0  0  0  0  0  0  0
    1.4631   -0.8244    0.0000 H   0  0  0  0  0  0  0  0  0  0  0  0
    4.2690   -2.4444    0.0000 H   0  0  0  0  0  0  0  0  0  0  0  0
    1.4631   -2.4444    0.0000 H   0  0  0  0  0  0  0  0  0  0  0  0
    2.8660   -3.2544    0.0000 H   0  0  0  0  0  0  0  0  0  0  0  0
  1  8  1  0  0  0  0
  2  9  2  0  0  0  0
  3 10  2  0  0  0  0
  4  6  1  0  0  0  0
  4  7  1  0  0  0  0
  4 16  1  0  0  0  0
  5  9  1  0  0  0  0
  5 10  1  0  0  0  0
  5 17  1  0  0  0  0
  6  8  2  0  0  0  0
  6  9  1  0  0  0  0
  7 11  2  0  0  0  0
  7 12  1  0  0  0  0
  8 10  1  0  0  0  0
 11 13  1  0  0  0  0
 11 18  1  0  0  0  0
 12 14  2  0  0  0  0
 12 19  1  0  0  0  0
 13 15  2  0  0  0  0
 13 20  1  0  0  0  0
 14 15  1  0  0  0  0
 14 21  1  0  0  0  0
 15 22  1  0  0  0  0
M  END
> <PUBCHEM_COMPOUND_CID>
12553292

> <PUBCHEM_COMPOUND_CANONICALIZED>
1

> <PUBCHEM_CACTVS_COMPLEXITY>
332

> <PUBCHEM_CACTVS_HBOND_ACCEPTOR>
3

> <PUBCHEM_CACTVS_HBOND_DONOR>
2

> <PUBCHEM_CACTVS_ROTATABLE_BOND>
2

> <PUBCHEM_CACTVS_SUBSKEYS>
AAADcYBzMAAEAAAAAAAAAAAAAAAAAQAAAAAwAAAAAAAAAAABAAAAHgIQAAAACAqBkAAwwILAAACIACVSUACCAAAhAgAIiACAZMhIYCLAkbHUIAhglCDIyUcQAAAAAAAAAAAAAAAAAAAAAAAAAAAAAAAAAA==

> <PUBCHEM_IUPAC_OPENEYE_NAME>
3-anilino-4-chloro-pyrrole-2,5-dione

> <PUBCHEM_IUPAC_CAS_NAME>
3-anilino-4-chloropyrrole-2,5-dione

> <PUBCHEM_IUPAC_NAME_MARKUP>
3-anilino-4-chloropyrrole-2,5-dione

> <PUBCHEM_IUPAC_NAME>
3-anilino-4-chloropyrrole-2,5-dione

> <PUBCHEM_IUPAC_SYSTEMATIC_NAME>
3-chloranyl-4-phenylazanyl-pyrrole-2,5-dione

> <PUBCHEM_IUPAC_TRADITIONAL_NAME>
3-anilino-4-chloro-3-pyrroline-2,5-quinone

> <PUBCHEM_IUPAC_INCHI>
InChI=1S/C10H7ClN2O2/c11-7-8(10(15)13-9(7)14)12-6-4-2-1-3-5-6/h1-5H,(H2,12,13,14,15)

> <PUBCHEM_IUPAC_INCHIKEY>
HHZQTBBGRKAUIJ-UHFFFAOYSA-N

> <PUBCHEM_XLOGP3_AA>
1.9

> <PUBCHEM_EXACT_MASS>
222.0196052

> <PUBCHEM_MOLECULAR_FORMULA>
C10H7ClN2O2

> <PUBCHEM_MOLECULAR_WEIGHT>
222.63

> <PUBCHEM_SMILES>
C1=CC=C(C=C1)NC2=C(C(=O)NC2=O)Cl

> <PUBCHEM_OPENEYE_CAN_SMILES>
C1=CC=C(C=C1)NC2=C(C(=O)NC2=O)Cl

> <PUBCHEM_OPENEYE_ISO_SMILES>
C1=CC=C(C=C1)NC2=C(C(=O)NC2=O)Cl

> <PUBCHEM_CACTVS_TPSA>
58.2

> <PUBCHEM_MONOISOTOPIC_WEIGHT>
222.0196052

> <PUBCHEM_TOTAL_CHARGE>
0

> <PUBCHEM_HEAVY_ATOM_COUNT>
15

> <PUBCHEM_ATOM_DEF_STEREO_COUNT>
0

> <PUBCHEM_ATOM_UDEF_STEREO_COUNT>
0

> <PUBCHEM_BOND_DEF_STEREO_COUNT>
0

> <PUBCHEM_BOND_UDEF_STEREO_COUNT>
0

> <PUBCHEM_ISOTOPIC_ATOM_COUNT>
0

> <PUBCHEM_COMPONENT_COUNT>
1

> <PUBCHEM_CACTVS_TAUTO_COUNT>
-1

> <PUBCHEM_COORDINATE_TYPE>
1
5
255

> <PUBCHEM_BONDANNOTATIONS>
11  13  8
12  14  8
13  15  8
14  15  8
7  11  8
7  12  8

$$$$
