49830311
  -OEChem-03202502492D

 26 28  0     0  0  0  0  0  0999 V2000
    3.9639    2.7942    0.0000 Cl  0  0  0  0  0  0  0  0  0  0  0  0
    4.6783   -2.2049    0.0000 N   0  0  0  0  0  0  0  0  0  0  0  0
    2.8660   -2.4002    0.0000 N   0  0  0  0  0  0  0  0  0  0  0  0
    5.6103    2.2561    0.0000 N   0  0  0  0  0  0  0  0  0  0  0  0
    7.2566    1.7180    0.0000 N   0  0  0  0  0  0  0  0  0  0  0  0
    4.6783   -0.5954    0.0000 C   0  0  0  0  0  0  0  0  0  0  0  0
    3.7320   -0.9002    0.0000 C   0  0  0  0  0  0  0  0  0  0  0  0
    3.7320   -1.9002    0.0000 C   0  0  0  0  0  0  0  0  0  0  0  0
    4.9889    0.3551    0.0000 C   0  0  0  0  0  0  0  0  0  0  0  0
    5.2619   -1.4002    0.0000 C   0  0  0  0  0  0  0  0  0  0  0  0
    2.8660   -0.4002    0.0000 C   0  0  0  0  0  0  0  0  0  0  0  0
    5.9674    0.5613    0.0000 C   0  0  0  0  0  0  0  0  0  0  0  0
    4.3211    1.0994    0.0000 C   0  0  0  0  0  0  0  0  0  0  0  0
    2.0000   -0.9002    0.0000 C   0  0  0  0  0  0  0  0  0  0  0  0
    6.2781    1.5118    0.0000 C   0  0  0  0  0  0  0  0  0  0  0  0
    2.0000   -1.9002    0.0000 C   0  0  0  0  0  0  0  0  0  0  0  0
    4.6318    2.0499    0.0000 C   0  0  0  0  0  0  0  0  0  0  0  0
    5.8819   -1.4002    0.0000 H   0  0  0  0  0  0  0  0  0  0  0  0
    4.8709   -2.7942    0.0000 H   0  0  0  0  0  0  0  0  0  0  0  0
    2.8660    0.2198    0.0000 H   0  0  0  0  0  0  0  0  0  0  0  0
    6.3815    0.0998    0.0000 H   0  0  0  0  0  0  0  0  0  0  0  0
    3.7144    0.9715    0.0000 H   0  0  0  0  0  0  0  0  0  0  0  0
    1.4631   -0.5902    0.0000 H   0  0  0  0  0  0  0  0  0  0  0  0
    1.4631   -2.2102    0.0000 H   0  0  0  0  0  0  0  0  0  0  0  0
    7.4492    2.3074    0.0000 H   0  0  0  0  0  0  0  0  0  0  0  0
    7.6707    1.2566    0.0000 H   0  0  0  0  0  0  0  0  0  0  0  0
  1 17  1  0  0  0  0
  2  8  1  0  0  0  0
  2 10  1  0  0  0  0
  2 19  1  0  0  0  0
  3  8  1  0  0  0  0
  3 16  2  0  0  0  0
  4 15  2  0  0  0  0
  4 17  1  0  0  0  0
  5 15  1  0  0  0  0
  5 25  1  0  0  0  0
  5 26  1  0  0  0  0
  6  7  1  0  0  0  0
  6  9  1  0  0  0  0
  6 10  2  0  0  0  0
  7  8  2  0  0  0  0
  7 11  1  0  0  0  0
  9 12  2  0  0  0  0
  9 13  1  0  0  0  0
 10 18  1  0  0  0  0
 11 14  2  0  0  0  0
 11 20  1  0  0  0  0
 12 15  1  0  0  0  0
 12 21  1  0  0  0  0
 13 17  2  0  0  0  0
 13 22  1  0  0  0  0
 14 16  1  0  0  0  0
 14 23  1  0  0  0  0
 16 24  1  0  0  0  0
M  END
> <PUBCHEM_COMPOUND_CID>
49830311

> <PUBCHEM_COMPOUND_CANONICALIZED>
1

> <PUBCHEM_CACTVS_COMPLEXITY>
275

> <PUBCHEM_CACTVS_HBOND_ACCEPTOR>
3

> <PUBCHEM_CACTVS_HBOND_DONOR>
2

> <PUBCHEM_CACTVS_ROTATABLE_BOND>
1

> <PUBCHEM_CACTVS_SUBSKEYS>
AAADccBzgAAEAAAAAAAAAAAAAAAAAWAAAAAsWAAAAAAAAFgB/gAAHAIQAAAADALBGyQ9sN7JkACgAjJnZACCgCmxB6AJ2aA4ZpiIKOLBm5GEIAhokALIyCcQgMAOgAAAAAAAAAAAAAAAAAAAAAAAAAAAAA==

> <PUBCHEM_IUPAC_OPENEYE_NAME>
6-chloro-4-(1H-pyrrolo[2,3-b]pyridin-3-yl)pyridin-2-amine

> <PUBCHEM_IUPAC_CAS_NAME>
6-chloro-4-(1H-pyrrolo[2,3-b]pyridin-3-yl)-2-pyridinamine

> <PUBCHEM_IUPAC_NAME_MARKUP>
6-chloro-4-(1<I>H</I>-pyrrolo[2,3-b]pyridin-3-yl)pyridin-2-amine

> <PUBCHEM_IUPAC_NAME>
6-chloro-4-(1H-pyrrolo[2,3-b]pyridin-3-yl)pyridin-2-amine

> <PUBCHEM_IUPAC_SYSTEMATIC_NAME>
6-chloranyl-4-(1H-pyrrolo[2,3-b]pyridin-3-yl)pyridin-2-amine

> <PUBCHEM_IUPAC_TRADITIONAL_NAME>
[6-chloro-4-(1H-pyrrolo[2,3-b]pyridin-3-yl)-2-pyridyl]amine

> <PUBCHEM_IUPAC_INCHI>
InChI=1S/C12H9ClN4/c13-10-4-7(5-11(14)17-10)9-6-16-12-8(9)2-1-3-15-12/h1-6H,(H2,14,17)(H,15,16)

> <PUBCHEM_IUPAC_INCHIKEY>
ACSYKUPGCXYRRO-UHFFFAOYSA-N

> <PUBCHEM_XLOGP3_AA>
2.5

> <PUBCHEM_EXACT_MASS>
244.0515740

> <PUBCHEM_MOLECULAR_FORMULA>
C12H9ClN4

> <PUBCHEM_MOLECULAR_WEIGHT>
244.68

> <PUBCHEM_SMILES>
C1=CC2=C(NC=C2C3=CC(=NC(=C3)Cl)N)N=C1

> <PUBCHEM_OPENEYE_CAN_SMILES>
C1=CC2=C(NC=C2C3=CC(=NC(=C3)Cl)N)N=C1

> <PUBCHEM_OPENEYE_ISO_SMILES>
C1=CC2=C(NC=C2C3=CC(=NC(=C3)Cl)N)N=C1

> <PUBCHEM_CACTVS_TPSA>
67.6

> <PUBCHEM_MONOISOTOPIC_WEIGHT>
244.0515740

> <PUBCHEM_TOTAL_CHARGE>
0

> <PUBCHEM_HEAVY_ATOM_COUNT>
17

> <PUBCHEM_ATOM_DEF_STEREO_COUNT>
0

> <PUBCHEM_ATOM_UDEF_STEREO_COUNT>
0

> <PUBCHEM_BOND_DEF_STEREO_COUNT>
0

> <PUBCHEM_BOND_UDEF_STEREO_COUNT>
0

> <PUBCHEM_ISOTOPIC_ATOM_COUNT>
0

> <PUBCHEM_COMPONENT_COUNT>
1

> <PUBCHEM_CACTVS_TAUTO_COUNT>
-1

> <PUBCHEM_COORDINATE_TYPE>
1
5
255

> <PUBCHEM_BONDANNOTATIONS>
11  14  8
12  15  8
13  17  8
14  16  8
2  10  8
2  8  8
3  16  8
3  8  8
4  15  8
4  17  8
6  10  8
6  7  8
7  11  8
7  8  8
9  12  8
9  13  8

$$$$
