49830351
  -OEChem-03202502172D

 55 59  0     0  0  0  0  0  0999 V2000
    4.9000   -2.1941    0.0000 S   0  0  0  0  0  0  0  0  0  0  0  0
    7.7890    2.6794    0.0000 O   0  0  0  0  0  0  0  0  0  0  0  0
    2.2218   -0.8893    0.0000 N   0  0  0  0  0  0  0  0  0  0  0  0
    2.5878   -4.9282    0.0000 N   0  0  0  0  0  0  0  0  0  0  0  0
    3.0878    0.6107    0.0000 N   0  0  0  0  0  0  0  0  0  0  0  0
    3.5878   -4.9282    0.0000 N   0  0  0  0  0  0  0  0  0  0  0  0
    6.1427    3.2175    0.0000 N   0  0  0  0  0  0  0  0  0  0  0  0
    7.4318    4.3742    0.0000 N   0  0  0  0  0  0  0  0  0  0  0  0
    3.9538   -0.8893    0.0000 C   0  0  0  0  0  0  0  0  0  0  0  0
    3.9538   -1.8893    0.0000 C   0  0  0  0  0  0  0  0  0  0  0  0
    4.9000   -0.5846    0.0000 C   0  0  0  0  0  0  0  0  0  0  0  0
    3.0878   -2.3893    0.0000 C   0  0  0  0  0  0  0  0  0  0  0  0
    5.2107    0.3659    0.0000 C   0  0  0  0  0  0  0  0  0  0  0  0
    3.0878   -0.3893    0.0000 C   0  0  0  0  0  0  0  0  0  0  0  0
    3.0878   -3.3893    0.0000 C   0  0  0  0  0  0  0  0  0  0  0  0
    5.4836   -1.3893    0.0000 C   0  0  0  0  0  0  0  0  0  0  0  0
    2.2218   -1.8893    0.0000 C   0  0  0  0  0  0  0  0  0  0  0  0
    4.5428    1.1102    0.0000 C   0  0  0  0  0  0  0  0  0  0  0  0
    6.1892    0.5721    0.0000 C   0  0  0  0  0  0  0  0  0  0  0  0
    2.2788   -3.9771    0.0000 C   0  0  0  0  0  0  0  0  0  0  0  0
    5.8320    2.2670    0.0000 C   0  0  0  0  0  0  0  0  0  0  0  0
    3.8968   -3.9771    0.0000 C   0  0  0  0  0  0  0  0  0  0  0  0
    4.8535    2.0608    0.0000 C   0  0  0  0  0  0  0  0  0  0  0  0
    6.4999    1.5227    0.0000 C   0  0  0  0  0  0  0  0  0  0  0  0
    2.0000   -5.7372    0.0000 C   0  0  0  0  0  0  0  0  0  0  0  0
    7.1212    3.4237    0.0000 C   0  0  0  0  0  0  0  0  0  0  0  0
    8.4104    4.5804    0.0000 C   0  0  0  0  0  0  0  0  0  0  0  0
   10.3674    4.9929    0.0000 C   0  0  0  0  0  0  0  0  0  0  0  0
    9.0782    3.8361    0.0000 C   0  0  0  0  0  0  0  0  0  0  0  0
    8.7210    5.5310    0.0000 C   0  0  0  0  0  0  0  0  0  0  0  0
   10.0567    4.0424    0.0000 C   0  0  0  0  0  0  0  0  0  0  0  0
    9.6995    5.7372    0.0000 C   0  0  0  0  0  0  0  0  0  0  0  0
   11.3459    5.1991    0.0000 C   0  0  0  0  0  0  0  0  0  0  0  0
    6.1036   -1.3893    0.0000 H   0  0  0  0  0  0  0  0  0  0  0  0
    1.6848   -2.1993    0.0000 H   0  0  0  0  0  0  0  0  0  0  0  0
    3.9362    0.9824    0.0000 H   0  0  0  0  0  0  0  0  0  0  0  0
    6.6033    0.1107    0.0000 H   0  0  0  0  0  0  0  0  0  0  0  0
    1.6891   -3.7855    0.0000 H   0  0  0  0  0  0  0  0  0  0  0  0
    4.4865   -3.7855    0.0000 H   0  0  0  0  0  0  0  0  0  0  0  0
    4.4394    2.5222    0.0000 H   0  0  0  0  0  0  0  0  0  0  0  0
    7.1065    1.6505    0.0000 H   0  0  0  0  0  0  0  0  0  0  0  0
    2.5508    0.9207    0.0000 H   0  0  0  0  0  0  0  0  0  0  0  0
    3.6247    0.9207    0.0000 H   0  0  0  0  0  0  0  0  0  0  0  0
    5.7286    3.6790    0.0000 H   0  0  0  0  0  0  0  0  0  0  0  0
    1.4984   -5.3728    0.0000 H   0  0  0  0  0  0  0  0  0  0  0  0
    1.6356   -6.2388    0.0000 H   0  0  0  0  0  0  0  0  0  0  0  0
    2.5016   -6.1016    0.0000 H   0  0  0  0  0  0  0  0  0  0  0  0
    7.0178    4.8357    0.0000 H   0  0  0  0  0  0  0  0  0  0  0  0
    8.8856    3.2468    0.0000 H   0  0  0  0  0  0  0  0  0  0  0  0
    8.3070    5.9924    0.0000 H   0  0  0  0  0  0  0  0  0  0  0  0
   10.4708    3.5809    0.0000 H   0  0  0  0  0  0  0  0  0  0  0  0
    9.8921    6.3265    0.0000 H   0  0  0  0  0  0  0  0  0  0  0  0
   11.4737    4.5924    0.0000 H   0  0  0  0  0  0  0  0  0  0  0  0
   11.9525    5.3270    0.0000 H   0  0  0  0  0  0  0  0  0  0  0  0
   11.2180    5.8058    0.0000 H   0  0  0  0  0  0  0  0  0  0  0  0
  1 10  1  0  0  0  0
  1 16  1  0  0  0  0
  2 26  2  0  0  0  0
  3 14  2  0  0  0  0
  3 17  1  0  0  0  0
  4  6  1  0  0  0  0
  4 20  1  0  0  0  0
  4 25  1  0  0  0  0
  5 14  1  0  0  0  0
  5 42  1  0  0  0  0
  5 43  1  0  0  0  0
  6 22  2  0  0  0  0
  7 21  1  0  0  0  0
  7 26  1  0  0  0  0
  7 44  1  0  0  0  0
  8 26  1  0  0  0  0
  8 27  1  0  0  0  0
  8 48  1  0  0  0  0
  9 10  2  0  0  0  0
  9 11  1  0  0  0  0
  9 14  1  0  0  0  0
 10 12  1  0  0  0  0
 11 13  1  0  0  0  0
 11 16  2  0  0  0  0
 12 15  1  0  0  0  0
 12 17  2  0  0  0  0
 13 18  2  0  0  0  0
 13 19  1  0  0  0  0
 15 20  2  0  0  0  0
 15 22  1  0  0  0  0
 16 34  1  0  0  0  0
 17 35  1  0  0  0  0
 18 23  1  0  0  0  0
 18 36  1  0  0  0  0
 19 24  2  0  0  0  0
 19 37  1  0  0  0  0
 20 38  1  0  0  0  0
 21 23  2  0  0  0  0
 21 24  1  0  0  0  0
 22 39  1  0  0  0  0
 23 40  1  0  0  0  0
 24 41  1  0  0  0  0
 25 45  1  0  0  0  0
 25 46  1  0  0  0  0
 25 47  1  0  0  0  0
 27 29  2  0  0  0  0
 27 30  1  0  0  0  0
 28 31  2  0  0  0  0
 28 32  1  0  0  0  0
 28 33  1  0  0  0  0
 29 31  1  0  0  0  0
 29 49  1  0  0  0  0
 30 32  2  0  0  0  0
 30 50  1  0  0  0  0
 31 51  1  0  0  0  0
 32 52  1  0  0  0  0
 33 53  1  0  0  0  0
 33 54  1  0  0  0  0
 33 55  1  0  0  0  0
M  END
> <PUBCHEM_COMPOUND_CID>
49830351

> <PUBCHEM_COMPOUND_CANONICALIZED>
1

> <PUBCHEM_CACTVS_COMPLEXITY>
665

> <PUBCHEM_CACTVS_HBOND_ACCEPTOR>
5

> <PUBCHEM_CACTVS_HBOND_DONOR>
3

> <PUBCHEM_CACTVS_ROTATABLE_BOND>
4

> <PUBCHEM_CACTVS_SUBSKEYS>
AAADceB7oABAAAAAAAAAAAAAAAAAAWJAAAA8YIAAAAAAAFgB/gAAHgQYAAAADAjFWgS/8dLIEAiuAjZndACThKkxijAY2DAoZJiIIOLg0dGEpAxonALoyCcQgMAOiAAAAAAAAAAQAAAAAAAAAAAAAAAAAA==

> <PUBCHEM_IUPAC_OPENEYE_NAME>
1-[4-[4-amino-7-(1-methylpyrazol-4-yl)thieno[3,2-c]pyridin-3-yl]phenyl]-3-(p-tolyl)urea

> <PUBCHEM_IUPAC_CAS_NAME>
1-[4-[4-amino-7-(1-methyl-4-pyrazolyl)-3-thieno[3,2-c]pyridinyl]phenyl]-3-(4-methylphenyl)urea

> <PUBCHEM_IUPAC_NAME_MARKUP>
1-[4-[4-amino-7-(1-methylpyrazol-4-yl)thieno[3,2-c]pyridin-3-yl]phenyl]-3-(4-methylphenyl)urea

> <PUBCHEM_IUPAC_NAME>
1-[4-[4-amino-7-(1-methylpyrazol-4-yl)thieno[3,2-c]pyridin-3-yl]phenyl]-3-(4-methylphenyl)urea

> <PUBCHEM_IUPAC_SYSTEMATIC_NAME>
1-[4-[4-azanyl-7-(1-methylpyrazol-4-yl)thieno[3,2-c]pyridin-3-yl]phenyl]-3-(4-methylphenyl)urea

> <PUBCHEM_IUPAC_TRADITIONAL_NAME>
1-[4-[4-amino-7-(1-methylpyrazol-4-yl)thieno[3,2-c]pyridin-3-yl]phenyl]-3-(p-tolyl)urea

> <PUBCHEM_IUPAC_INCHI>
InChI=1S/C25H22N6OS/c1-15-3-7-18(8-4-15)29-25(32)30-19-9-5-16(6-10-19)21-14-33-23-20(12-27-24(26)22(21)23)17-11-28-31(2)13-17/h3-14H,1-2H3,(H2,26,27)(H2,29,30,32)

> <PUBCHEM_IUPAC_INCHIKEY>
XKZINYYXWJEYEL-UHFFFAOYSA-N

> <PUBCHEM_XLOGP3_AA>
4

> <PUBCHEM_EXACT_MASS>
454.15758052

> <PUBCHEM_MOLECULAR_FORMULA>
C25H22N6OS

> <PUBCHEM_MOLECULAR_WEIGHT>
454.5

> <PUBCHEM_SMILES>
CC1=CC=C(C=C1)NC(=O)NC2=CC=C(C=C2)C3=CSC4=C3C(=NC=C4C5=CN(N=C5)C)N

> <PUBCHEM_OPENEYE_CAN_SMILES>
CC1=CC=C(C=C1)NC(=O)NC2=CC=C(C=C2)C3=CSC4=C3C(=NC=C4C5=CN(N=C5)C)N

> <PUBCHEM_OPENEYE_ISO_SMILES>
CC1=CC=C(C=C1)NC(=O)NC2=CC=C(C=C2)C3=CSC4=C3C(=NC=C4C5=CN(N=C5)C)N

> <PUBCHEM_CACTVS_TPSA>
126

> <PUBCHEM_MONOISOTOPIC_WEIGHT>
454.15758052

> <PUBCHEM_TOTAL_CHARGE>
0

> <PUBCHEM_HEAVY_ATOM_COUNT>
33

> <PUBCHEM_ATOM_DEF_STEREO_COUNT>
0

> <PUBCHEM_ATOM_UDEF_STEREO_COUNT>
0

> <PUBCHEM_BOND_DEF_STEREO_COUNT>
0

> <PUBCHEM_BOND_UDEF_STEREO_COUNT>
0

> <PUBCHEM_ISOTOPIC_ATOM_COUNT>
0

> <PUBCHEM_COMPONENT_COUNT>
1

> <PUBCHEM_CACTVS_TAUTO_COUNT>
-1

> <PUBCHEM_COORDINATE_TYPE>
1
5
255

> <PUBCHEM_BONDANNOTATIONS>
1  10  8
1  16  8
10  12  8
11  16  8
12  17  8
13  18  8
13  19  8
15  20  8
15  22  8
18  23  8
19  24  8
21  23  8
21  24  8
27  29  8
27  30  8
28  31  8
28  32  8
29  31  8
3  14  8
3  17  8
30  32  8
4  20  8
4  6  8
6  22  8
9  10  8
9  11  8
9  14  8

$$$$
