21060786
  -OEChem-03202502322D

 58 61  0     0  0  0  0  0  0999 V2000
    7.3007    4.3933    0.0000 O   0  0  0  0  0  0  0  0  0  0  0  0
    2.8660   -3.1012    0.0000 O   0  0  0  0  0  0  0  0  0  0  0  0
    6.3301   -3.1012    0.0000 O   0  0  0  0  0  0  0  0  0  0  0  0
    4.5981   -4.1012    0.0000 O   0  0  0  0  0  0  0  0  0  0  0  0
    8.2788    4.6012    0.0000 N   0  0  0  0  0  0  0  0  0  0  0  0
    6.3301    2.8988    0.0000 N   0  0  0  0  0  0  0  0  0  0  0  0
    5.4641    1.3988    0.0000 N   0  0  0  0  0  0  0  0  0  0  0  0
    4.5981   -0.1012    0.0000 N   0  0  0  0  0  0  0  0  0  0  0  0
    6.3301   -0.1012    0.0000 N   0  0  0  0  0  0  0  0  0  0  0  0
    9.7734    3.6307    0.0000 C   0  0  0  0  0  0  0  0  0  0  0  0
   10.1801    2.7171    0.0000 C   0  0  0  0  0  0  0  0  0  0  0  0
   10.3611    4.4397    0.0000 C   0  0  0  0  0  0  0  0  0  0  0  0
   11.1746    2.6126    0.0000 C   0  0  0  0  0  0  0  0  0  0  0  0
   11.3557    4.3351    0.0000 C   0  0  0  0  0  0  0  0  0  0  0  0
   11.7624    3.4216    0.0000 C   0  0  0  0  0  0  0  0  0  0  0  0
    8.7788    3.7352    0.0000 C   0  0  0  0  0  0  0  0  0  0  0  0
    8.1097    2.9920    0.0000 C   0  0  0  0  0  0  0  0  0  0  0  0
    7.1962    3.3988    0.0000 C   0  0  0  0  0  0  0  0  0  0  0  0
    6.3301    1.8988    0.0000 C   0  0  0  0  0  0  0  0  0  0  0  0
    7.1962    1.3988    0.0000 C   0  0  0  0  0  0  0  0  0  0  0  0
    5.4641    0.3988    0.0000 C   0  0  0  0  0  0  0  0  0  0  0  0
    4.5981   -1.1012    0.0000 C   0  0  0  0  0  0  0  0  0  0  0  0
    7.1962    0.3988    0.0000 C   0  0  0  0  0  0  0  0  0  0  0  0
    5.4641   -1.6012    0.0000 C   0  0  0  0  0  0  0  0  0  0  0  0
    3.7320   -1.6012    0.0000 C   0  0  0  0  0  0  0  0  0  0  0  0
    3.7320   -2.6012    0.0000 C   0  0  0  0  0  0  0  0  0  0  0  0
    5.4641   -2.6012    0.0000 C   0  0  0  0  0  0  0  0  0  0  0  0
    4.5981   -3.1012    0.0000 C   0  0  0  0  0  0  0  0  0  0  0  0
    2.0000   -2.6012    0.0000 C   0  0  0  0  0  0  0  0  0  0  0  0
    6.3301   -4.1012    0.0000 C   0  0  0  0  0  0  0  0  0  0  0  0
    3.7320   -4.6012    0.0000 C   0  0  0  0  0  0  0  0  0  0  0  0
    9.4089    3.1291    0.0000 H   0  0  0  0  0  0  0  0  0  0  0  0
    9.5785    2.5671    0.0000 H   0  0  0  0  0  0  0  0  0  0  0  0
   10.2233    2.0986    0.0000 H   0  0  0  0  0  0  0  0  0  0  0  0
   10.5320    5.0357    0.0000 H   0  0  0  0  0  0  0  0  0  0  0  0
    9.8039    4.7115    0.0000 H   0  0  0  0  0  0  0  0  0  0  0  0
   11.0037    2.0166    0.0000 H   0  0  0  0  0  0  0  0  0  0  0  0
   11.7319    2.3408    0.0000 H   0  0  0  0  0  0  0  0  0  0  0  0
   11.9572    4.4851    0.0000 H   0  0  0  0  0  0  0  0  0  0  0  0
   11.3124    4.9536    0.0000 H   0  0  0  0  0  0  0  0  0  0  0  0
   12.1931    2.9756    0.0000 H   0  0  0  0  0  0  0  0  0  0  0  0
   12.2764    3.7683    0.0000 H   0  0  0  0  0  0  0  0  0  0  0  0
    8.2386    2.3856    0.0000 H   0  0  0  0  0  0  0  0  0  0  0  0
    5.7932    3.2088    0.0000 H   0  0  0  0  0  0  0  0  0  0  0  0
    7.7331    1.7088    0.0000 H   0  0  0  0  0  0  0  0  0  0  0  0
    4.0611    0.2088    0.0000 H   0  0  0  0  0  0  0  0  0  0  0  0
    7.7331    0.0888    0.0000 H   0  0  0  0  0  0  0  0  0  0  0  0
    6.0010   -1.2912    0.0000 H   0  0  0  0  0  0  0  0  0  0  0  0
    3.1951   -1.2912    0.0000 H   0  0  0  0  0  0  0  0  0  0  0  0
    2.3100   -2.0643    0.0000 H   0  0  0  0  0  0  0  0  0  0  0  0
    1.4631   -2.2912    0.0000 H   0  0  0  0  0  0  0  0  0  0  0  0
    1.6900   -3.1382    0.0000 H   0  0  0  0  0  0  0  0  0  0  0  0
    5.7101   -4.1012    0.0000 H   0  0  0  0  0  0  0  0  0  0  0  0
    6.3301   -4.7212    0.0000 H   0  0  0  0  0  0  0  0  0  0  0  0
    6.9501   -4.1012    0.0000 H   0  0  0  0  0  0  0  0  0  0  0  0
    3.4220   -4.0643    0.0000 H   0  0  0  0  0  0  0  0  0  0  0  0
    3.1951   -4.9112    0.0000 H   0  0  0  0  0  0  0  0  0  0  0  0
    4.0420   -5.1382    0.0000 H   0  0  0  0  0  0  0  0  0  0  0  0
  1  5  1  0  0  0  0
  1 18  1  0  0  0  0
  2 26  1  0  0  0  0
  2 29  1  0  0  0  0
  3 27  1  0  0  0  0
  3 30  1  0  0  0  0
  4 28  1  0  0  0  0
  4 31  1  0  0  0  0
  5 16  2  0  0  0  0
  6 18  1  0  0  0  0
  6 19  1  0  0  0  0
  6 44  1  0  0  0  0
  7 19  2  0  0  0  0
  7 21  1  0  0  0  0
  8 21  1  0  0  0  0
  8 22  1  0  0  0  0
  8 46  1  0  0  0  0
  9 21  2  0  0  0  0
  9 23  1  0  0  0  0
 10 11  1  0  0  0  0
 10 12  1  0  0  0  0
 10 16  1  0  0  0  0
 10 32  1  0  0  0  0
 11 13  1  0  0  0  0
 11 33  1  0  0  0  0
 11 34  1  0  0  0  0
 12 14  1  0  0  0  0
 12 35  1  0  0  0  0
 12 36  1  0  0  0  0
 13 15  1  0  0  0  0
 13 37  1  0  0  0  0
 13 38  1  0  0  0  0
 14 15  1  0  0  0  0
 14 39  1  0  0  0  0
 14 40  1  0  0  0  0
 15 41  1  0  0  0  0
 15 42  1  0  0  0  0
 16 17  1  0  0  0  0
 17 18  2  0  0  0  0
 17 43  1  0  0  0  0
 19 20  1  0  0  0  0
 20 23  2  0  0  0  0
 20 45  1  0  0  0  0
 22 24  2  0  0  0  0
 22 25  1  0  0  0  0
 23 47  1  0  0  0  0
 24 27  1  0  0  0  0
 24 48  1  0  0  0  0
 25 26  2  0  0  0  0
 25 49  1  0  0  0  0
 26 28  1  0  0  0  0
 27 28  2  0  0  0  0
 29 50  1  0  0  0  0
 29 51  1  0  0  0  0
 29 52  1  0  0  0  0
 30 53  1  0  0  0  0
 30 54  1  0  0  0  0
 30 55  1  0  0  0  0
 31 56  1  0  0  0  0
 31 57  1  0  0  0  0
 31 58  1  0  0  0  0
M  END
> <PUBCHEM_COMPOUND_CID>
21060786

> <PUBCHEM_COMPOUND_CANONICALIZED>
1

> <PUBCHEM_CACTVS_COMPLEXITY>
524

> <PUBCHEM_CACTVS_HBOND_ACCEPTOR>
9

> <PUBCHEM_CACTVS_HBOND_DONOR>
2

> <PUBCHEM_CACTVS_ROTATABLE_BOND>
8

> <PUBCHEM_CACTVS_SUBSKEYS>
AAADceB7uAAAAAAAAAAAAAAAAAAAAWAAAAA8YIAAAAAAAAAB8AAAHgAUAAAADQzBlgY/9pbYFACpATd3dgCCiCk1IqAp2CE+7NuNL/rE+duENapv1R/K6We4+K+OAEAACgAAQAAAgAAUAACAAAAAAAAAAA==

> <PUBCHEM_IUPAC_OPENEYE_NAME>
N4-(3-cyclohexylisoxazol-5-yl)-N2-(3,4,5-trimethoxyphenyl)pyrimidine-2,4-diamine

> <PUBCHEM_IUPAC_CAS_NAME>
N4-(3-cyclohexyl-5-isoxazolyl)-N2-(3,4,5-trimethoxyphenyl)pyrimidine-2,4-diamine

> <PUBCHEM_IUPAC_NAME_MARKUP>
4-<I>N</I>-(3-cyclohexyl-1,2-oxazol-5-yl)-2-<I>N</I>-(3,4,5-trimethoxyphenyl)pyrimidine-2,4-diamine

> <PUBCHEM_IUPAC_NAME>
4-N-(3-cyclohexyl-1,2-oxazol-5-yl)-2-N-(3,4,5-trimethoxyphenyl)pyrimidine-2,4-diamine

> <PUBCHEM_IUPAC_SYSTEMATIC_NAME>
N4-(3-cyclohexyl-1,2-oxazol-5-yl)-N2-(3,4,5-trimethoxyphenyl)pyrimidine-2,4-diamine

> <PUBCHEM_IUPAC_TRADITIONAL_NAME>
(3-cyclohexylisoxazol-5-yl)-[2-(3,4,5-trimethoxyanilino)pyrimidin-4-yl]amine

> <PUBCHEM_IUPAC_INCHI>
InChI=1S/C22H27N5O4/c1-28-17-11-15(12-18(29-2)21(17)30-3)24-22-23-10-9-19(26-22)25-20-13-16(27-31-20)14-7-5-4-6-8-14/h9-14H,4-8H2,1-3H3,(H2,23,24,25,26)

> <PUBCHEM_IUPAC_INCHIKEY>
OTVCFDOYUHREFJ-UHFFFAOYSA-N

> <PUBCHEM_XLOGP3_AA>
4.8

> <PUBCHEM_EXACT_MASS>
425.20630436

> <PUBCHEM_MOLECULAR_FORMULA>
C22H27N5O4

> <PUBCHEM_MOLECULAR_WEIGHT>
425.5

> <PUBCHEM_SMILES>
COC1=CC(=CC(=C1OC)OC)NC2=NC=CC(=N2)NC3=CC(=NO3)C4CCCCC4

> <PUBCHEM_OPENEYE_CAN_SMILES>
COC1=CC(=CC(=C1OC)OC)NC2=NC=CC(=N2)NC3=CC(=NO3)C4CCCCC4

> <PUBCHEM_OPENEYE_ISO_SMILES>
COC1=CC(=CC(=C1OC)OC)NC2=NC=CC(=N2)NC3=CC(=NO3)C4CCCCC4

> <PUBCHEM_CACTVS_TPSA>
104

> <PUBCHEM_MONOISOTOPIC_WEIGHT>
425.20630436

> <PUBCHEM_TOTAL_CHARGE>
0

> <PUBCHEM_HEAVY_ATOM_COUNT>
31

> <PUBCHEM_ATOM_DEF_STEREO_COUNT>
0

> <PUBCHEM_ATOM_UDEF_STEREO_COUNT>
0

> <PUBCHEM_BOND_DEF_STEREO_COUNT>
0

> <PUBCHEM_BOND_UDEF_STEREO_COUNT>
0

> <PUBCHEM_ISOTOPIC_ATOM_COUNT>
0

> <PUBCHEM_COMPONENT_COUNT>
1

> <PUBCHEM_CACTVS_TAUTO_COUNT>
-1

> <PUBCHEM_COORDINATE_TYPE>
1
5
255

> <PUBCHEM_BONDANNOTATIONS>
1  18  8
1  5  8
16  17  8
17  18  8
19  20  8
20  23  8
22  24  8
22  25  8
24  27  8
25  26  8
26  28  8
27  28  8
5  16  8
7  19  8
7  21  8
9  21  8
9  23  8

$$$$
