24905144
  -OEChem-03192523312D

 34 37  0     0  0  0  0  0  0999 V2000
    3.7899   -1.4861    0.0000 N   0  0  0  0  0  0  0  0  0  0  0  0
    4.7617   -1.2769    0.0000 N   0  0  0  0  0  0  0  0  0  0  0  0
    2.3107   -0.4212    0.0000 N   0  0  0  0  0  0  0  0  0  0  0  0
    2.6678    1.2737    0.0000 N   0  0  0  0  0  0  0  0  0  0  0  0
    4.3142    1.8117    0.0000 N   0  0  0  0  0  0  0  0  0  0  0  0
    4.8648   -0.2882    0.0000 C   0  0  0  0  0  0  0  0  0  0  0  0
    3.9570    0.1169    0.0000 C   0  0  0  0  0  0  0  0  0  0  0  0
    5.7308    0.2118    0.0000 C   0  0  0  0  0  0  0  0  0  0  0  0
    3.2892   -0.6274    0.0000 C   0  0  0  0  0  0  0  0  0  0  0  0
    7.4629    0.2118    0.0000 C   0  0  0  0  0  0  0  0  0  0  0  0
    6.5968   -0.2882    0.0000 C   0  0  0  0  0  0  0  0  0  0  0  0
    7.4629    1.2118    0.0000 C   0  0  0  0  0  0  0  0  0  0  0  0
    5.7308    1.2118    0.0000 C   0  0  0  0  0  0  0  0  0  0  0  0
    3.6464    1.0674    0.0000 C   0  0  0  0  0  0  0  0  0  0  0  0
    6.5968    1.7118    0.0000 C   0  0  0  0  0  0  0  0  0  0  0  0
    3.3864   -2.4011    0.0000 C   0  0  0  0  0  0  0  0  0  0  0  0
    8.3568   -0.3229    0.0000 C   0  0  0  0  0  0  0  0  0  0  0  0
    8.3568    1.7465    0.0000 C   0  0  0  0  0  0  0  0  0  0  0  0
    9.2629    0.1910    0.0000 C   0  0  0  0  0  0  0  0  0  0  0  0
    9.2629    1.2326    0.0000 C   0  0  0  0  0  0  0  0  0  0  0  0
    2.0000    0.5294    0.0000 C   0  0  0  0  0  0  0  0  0  0  0  0
    6.5968   -0.9082    0.0000 H   0  0  0  0  0  0  0  0  0  0  0  0
    5.1939    1.5218    0.0000 H   0  0  0  0  0  0  0  0  0  0  0  0
    6.5968    2.3318    0.0000 H   0  0  0  0  0  0  0  0  0  0  0  0
    2.8191   -2.1508    0.0000 H   0  0  0  0  0  0  0  0  0  0  0  0
    3.1361   -2.9683    0.0000 H   0  0  0  0  0  0  0  0  0  0  0  0
    3.9536   -2.6513    0.0000 H   0  0  0  0  0  0  0  0  0  0  0  0
    8.3496   -0.9428    0.0000 H   0  0  0  0  0  0  0  0  0  0  0  0
    8.3496    2.3664    0.0000 H   0  0  0  0  0  0  0  0  0  0  0  0
    9.7986   -0.1211    0.0000 H   0  0  0  0  0  0  0  0  0  0  0  0
    9.7986    1.5447    0.0000 H   0  0  0  0  0  0  0  0  0  0  0  0
    1.3933    0.6572    0.0000 H   0  0  0  0  0  0  0  0  0  0  0  0
    4.1216    2.4011    0.0000 H   0  0  0  0  0  0  0  0  0  0  0  0
    4.9209    1.6839    0.0000 H   0  0  0  0  0  0  0  0  0  0  0  0
  1  2  1  0  0  0  0
  1  9  1  0  0  0  0
  1 16  1  0  0  0  0
  2  6  2  0  0  0  0
  3  9  2  0  0  0  0
  3 21  1  0  0  0  0
  4 14  1  0  0  0  0
  4 21  2  0  0  0  0
  5 14  1  0  0  0  0
  5 33  1  0  0  0  0
  5 34  1  0  0  0  0
  6  7  1  0  0  0  0
  6  8  1  0  0  0  0
  7  9  1  0  0  0  0
  7 14  2  0  0  0  0
  8 11  2  0  0  0  0
  8 13  1  0  0  0  0
 10 11  1  0  0  0  0
 10 12  1  0  0  0  0
 10 17  2  0  0  0  0
 11 22  1  0  0  0  0
 12 15  1  0  0  0  0
 12 18  2  0  0  0  0
 13 15  2  0  0  0  0
 13 23  1  0  0  0  0
 15 24  1  0  0  0  0
 16 25  1  0  0  0  0
 16 26  1  0  0  0  0
 16 27  1  0  0  0  0
 17 19  1  0  0  0  0
 17 28  1  0  0  0  0
 18 20  1  0  0  0  0
 18 29  1  0  0  0  0
 19 20  2  0  0  0  0
 19 30  1  0  0  0  0
 20 31  1  0  0  0  0
 21 32  1  0  0  0  0
M  END
> <PUBCHEM_COMPOUND_CID>
24905144

> <PUBCHEM_COMPOUND_CANONICALIZED>
1

> <PUBCHEM_CACTVS_COMPLEXITY>
376

> <PUBCHEM_CACTVS_HBOND_ACCEPTOR>
4

> <PUBCHEM_CACTVS_HBOND_DONOR>
1

> <PUBCHEM_CACTVS_ROTATABLE_BOND>
1

> <PUBCHEM_CACTVS_SUBSKEYS>
AAADccB7gAAAAAAAAAAAAAAAAAAAAWAAAAA8YIAAAAAAAFjB/AAAHAAYAAAADAiBHwQ3sN5IEACiAyZjZACShCsxgKAd2CAoRJiIKKLA2dGEpAhoiAJIyCcQgMAOwAACAAAQAACAAAQAACAAAAAAAAAAAA==

> <PUBCHEM_IUPAC_OPENEYE_NAME>
1-methyl-3-(2-naphthyl)pyrazolo[3,4-d]pyrimidin-4-amine

> <PUBCHEM_IUPAC_CAS_NAME>
1-methyl-3-(2-naphthalenyl)-4-pyrazolo[3,4-d]pyrimidinamine

> <PUBCHEM_IUPAC_NAME_MARKUP>
1-methyl-3-naphthalen-2-ylpyrazolo[3,4-d]pyrimidin-4-amine

> <PUBCHEM_IUPAC_NAME>
1-methyl-3-naphthalen-2-ylpyrazolo[3,4-d]pyrimidin-4-amine

> <PUBCHEM_IUPAC_SYSTEMATIC_NAME>
1-methyl-3-naphthalen-2-yl-pyrazolo[3,4-d]pyrimidin-4-amine

> <PUBCHEM_IUPAC_TRADITIONAL_NAME>
[1-methyl-3-(2-naphthyl)pyrazolo[3,4-d]pyrimidin-4-yl]amine

> <PUBCHEM_IUPAC_INCHI>
InChI=1S/C16H13N5/c1-21-16-13(15(17)18-9-19-16)14(20-21)12-7-6-10-4-2-3-5-11(10)8-12/h2-9H,1H3,(H2,17,18,19)

> <PUBCHEM_IUPAC_INCHIKEY>
UOKGZPYGRJDACN-UHFFFAOYSA-N

> <PUBCHEM_XLOGP3_AA>
2.7

> <PUBCHEM_EXACT_MASS>
275.11709544

> <PUBCHEM_MOLECULAR_FORMULA>
C16H13N5

> <PUBCHEM_MOLECULAR_WEIGHT>
275.31

> <PUBCHEM_SMILES>
CN1C2=NC=NC(=C2C(=N1)C3=CC4=CC=CC=C4C=C3)N

> <PUBCHEM_OPENEYE_CAN_SMILES>
CN1C2=NC=NC(=C2C(=N1)C3=CC4=CC=CC=C4C=C3)N

> <PUBCHEM_OPENEYE_ISO_SMILES>
CN1C2=NC=NC(=C2C(=N1)C3=CC4=CC=CC=C4C=C3)N

> <PUBCHEM_CACTVS_TPSA>
69.6

> <PUBCHEM_MONOISOTOPIC_WEIGHT>
275.11709544

> <PUBCHEM_TOTAL_CHARGE>
0

> <PUBCHEM_HEAVY_ATOM_COUNT>
21

> <PUBCHEM_ATOM_DEF_STEREO_COUNT>
0

> <PUBCHEM_ATOM_UDEF_STEREO_COUNT>
0

> <PUBCHEM_BOND_DEF_STEREO_COUNT>
0

> <PUBCHEM_BOND_UDEF_STEREO_COUNT>
0

> <PUBCHEM_ISOTOPIC_ATOM_COUNT>
0

> <PUBCHEM_COMPONENT_COUNT>
1

> <PUBCHEM_CACTVS_TAUTO_COUNT>
-1

> <PUBCHEM_COORDINATE_TYPE>
1
5
255

> <PUBCHEM_BONDANNOTATIONS>
1  2  8
1  9  8
10  11  8
10  12  8
10  17  8
12  15  8
12  18  8
13  15  8
17  19  8
18  20  8
19  20  8
2  6  8
3  21  8
3  9  8
4  14  8
4  21  8
6  7  8
7  14  8
7  9  8
8  11  8
8  13  8

$$$$
