44328750
  -OEChem-03202506192D

 68 74  0     1  0  0  0  0  0999 V2000
   13.2524   -1.7552    0.0000 O   0  0  0  0  0  0  0  0  0  0  0  0
    6.5909    0.5484    0.0000 O   0  0  0  0  0  0  0  0  0  0  0  0
    3.2006    1.6623    0.0000 N   0  0  3  0  0  0  0  0  0  0  0  0
    9.5264    1.1671    0.0000 N   0  0  0  0  0  0  0  0  0  0  0  0
    9.5264   -1.1671    0.0000 N   0  0  0  0  0  0  0  0  0  0  0  0
   13.5253    0.0000    0.0000 N   0  0  0  0  0  0  0  0  0  0  0  0
    6.2337    2.2433    0.0000 N   0  0  0  0  0  0  0  0  0  0  0  0
    3.6089    2.5751    0.0000 C   0  0  3  0  0  0  0  0  0  0  0  0
    2.8669    3.2455    0.0000 C   0  0  0  0  0  0  0  0  0  0  0  0
    2.0000    2.7470    0.0000 C   0  0  0  0  0  0  0  0  0  0  0  0
    2.2062    1.7685    0.0000 C   0  0  0  0  0  0  0  0  0  0  0  0
    4.5874    2.7813    0.0000 C   0  0  0  0  0  0  0  0  0  0  0  0
   10.2634    0.5000    0.0000 C   0  0  0  0  0  0  0  0  0  0  0  0
   11.1295    1.0000    0.0000 C   0  0  0  0  0  0  0  0  0  0  0  0
   11.9955    0.5000    0.0000 C   0  0  0  0  0  0  0  0  0  0  0  0
   10.2634   -0.5000    0.0000 C   0  0  0  0  0  0  0  0  0  0  0  0
   11.1295   -1.0000    0.0000 C   0  0  0  0  0  0  0  0  0  0  0  0
   11.9955   -0.5000    0.0000 C   0  0  0  0  0  0  0  0  0  0  0  0
   10.9203    1.9718    0.0000 C   0  0  0  0  0  0  0  0  0  0  0  0
    9.9315    2.0749    0.0000 C   0  0  0  0  0  0  0  0  0  0  0  0
    5.2552    2.0370    0.0000 C   0  0  0  0  0  0  0  0  0  0  0  0
    8.5479    0.9609    0.0000 C   0  0  0  0  0  0  0  0  0  0  0  0
   12.9417    0.8047    0.0000 C   0  0  0  0  0  0  0  0  0  0  0  0
   10.9203   -1.9718    0.0000 C   0  0  0  0  0  0  0  0  0  0  0  0
    3.6991    0.7954    0.0000 C   0  0  0  0  0  0  0  0  0  0  0  0
    9.9315   -2.0749    0.0000 C   0  0  0  0  0  0  0  0  0  0  0  0
   12.9417   -0.8047    0.0000 C   0  0  0  0  0  0  0  0  0  0  0  0
    7.8801    1.7052    0.0000 C   0  0  0  0  0  0  0  0  0  0  0  0
   11.5410    2.8006    0.0000 C   0  0  0  0  0  0  0  0  0  0  0  0
    9.4950    3.0138    0.0000 C   0  0  0  0  0  0  0  0  0  0  0  0
    6.9016    1.4990    0.0000 C   0  0  0  0  0  0  0  0  0  0  0  0
   11.5410   -2.8006    0.0000 C   0  0  0  0  0  0  0  0  0  0  0  0
    9.4950   -3.0138    0.0000 C   0  0  0  0  0  0  0  0  0  0  0  0
   11.1263    3.7494    0.0000 C   0  0  0  0  0  0  0  0  0  0  0  0
   10.0965    3.8567    0.0000 C   0  0  0  0  0  0  0  0  0  0  0  0
   11.1263   -3.7494    0.0000 C   0  0  0  0  0  0  0  0  0  0  0  0
   10.0965   -3.8567    0.0000 C   0  0  0  0  0  0  0  0  0  0  0  0
    3.9982    2.0926    0.0000 H   0  0  0  0  0  0  0  0  0  0  0  0
    3.3284    3.6596    0.0000 H   0  0  0  0  0  0  0  0  0  0  0  0
    2.5033    3.7478    0.0000 H   0  0  0  0  0  0  0  0  0  0  0  0
    1.7488    3.3139    0.0000 H   0  0  0  0  0  0  0  0  0  0  0  0
    1.4100    2.5565    0.0000 H   0  0  0  0  0  0  0  0  0  0  0  0
    1.5895    1.7048    0.0000 H   0  0  0  0  0  0  0  0  0  0  0  0
    2.2052    1.1485    0.0000 H   0  0  0  0  0  0  0  0  0  0  0  0
    5.1137    3.1090    0.0000 H   0  0  0  0  0  0  0  0  0  0  0  0
    4.3561    3.3566    0.0000 H   0  0  0  0  0  0  0  0  0  0  0  0
    4.7289    1.7094    0.0000 H   0  0  0  0  0  0  0  0  0  0  0  0
    5.4865    1.4618    0.0000 H   0  0  0  0  0  0  0  0  0  0  0  0
    8.0216    0.6332    0.0000 H   0  0  0  0  0  0  0  0  0  0  0  0
    8.7792    0.3856    0.0000 H   0  0  0  0  0  0  0  0  0  0  0  0
   13.4791    1.1140    0.0000 H   0  0  0  0  0  0  0  0  0  0  0  0
   12.6907    1.3716    0.0000 H   0  0  0  0  0  0  0  0  0  0  0  0
    3.1616    0.4863    0.0000 H   0  0  0  0  0  0  0  0  0  0  0  0
    4.0081    0.2579    0.0000 H   0  0  0  0  0  0  0  0  0  0  0  0
    4.2365    1.1044    0.0000 H   0  0  0  0  0  0  0  0  0  0  0  0
    8.9198   -1.0392    0.0000 H   0  0  0  0  0  0  0  0  0  0  0  0
    8.4064    2.0328    0.0000 H   0  0  0  0  0  0  0  0  0  0  0  0
    7.6488    2.2804    0.0000 H   0  0  0  0  0  0  0  0  0  0  0  0
   14.1453    0.0000    0.0000 H   0  0  0  0  0  0  0  0  0  0  0  0
    6.4263    2.8326    0.0000 H   0  0  0  0  0  0  0  0  0  0  0  0
   12.1569    2.7292    0.0000 H   0  0  0  0  0  0  0  0  0  0  0  0
    8.8777    3.0710    0.0000 H   0  0  0  0  0  0  0  0  0  0  0  0
   12.1569   -2.7292    0.0000 H   0  0  0  0  0  0  0  0  0  0  0  0
    8.8777   -3.0710    0.0000 H   0  0  0  0  0  0  0  0  0  0  0  0
   11.4923    4.2499    0.0000 H   0  0  0  0  0  0  0  0  0  0  0  0
    9.8416    4.4219    0.0000 H   0  0  0  0  0  0  0  0  0  0  0  0
   11.4923   -4.2499    0.0000 H   0  0  0  0  0  0  0  0  0  0  0  0
    9.8416   -4.4219    0.0000 H   0  0  0  0  0  0  0  0  0  0  0  0
  1 27  2  0  0  0  0
  2 31  2  0  0  0  0
  3  8  1  0  0  0  0
  3 11  1  0  0  0  0
  3 25  1  0  0  0  0
  4 13  1  0  0  0  0
  4 20  1  0  0  0  0
  4 22  1  0  0  0  0
  5 16  1  0  0  0  0
  5 26  1  0  0  0  0
  5 56  1  0  0  0  0
  6 23  1  0  0  0  0
  6 27  1  0  0  0  0
  6 59  1  0  0  0  0
  7 21  1  0  0  0  0
  7 31  1  0  0  0  0
  7 60  1  0  0  0  0
  8  9  1  0  0  0  0
  8 12  1  0  0  0  0
  8 38  1  0  0  0  0
  9 10  1  0  0  0  0
  9 39  1  0  0  0  0
  9 40  1  0  0  0  0
 10 11  1  0  0  0  0
 10 41  1  0  0  0  0
 10 42  1  0  0  0  0
 11 43  1  0  0  0  0
 11 44  1  0  0  0  0
 12 21  1  0  0  0  0
 12 45  1  0  0  0  0
 12 46  1  0  0  0  0
 13 14  1  0  0  0  0
 13 16  2  0  0  0  0
 14 15  2  0  0  0  0
 14 19  1  0  0  0  0
 15 18  1  0  0  0  0
 15 23  1  0  0  0  0
 16 17  1  0  0  0  0
 17 18  2  0  0  0  0
 17 24  1  0  0  0  0
 18 27  1  0  0  0  0
 19 20  1  0  0  0  0
 19 29  2  0  0  0  0
 20 30  2  0  0  0  0
 21 47  1  0  0  0  0
 21 48  1  0  0  0  0
 22 28  1  0  0  0  0
 22 49  1  0  0  0  0
 22 50  1  0  0  0  0
 23 51  1  0  0  0  0
 23 52  1  0  0  0  0
 24 26  1  0  0  0  0
 24 32  2  0  0  0  0
 25 53  1  0  0  0  0
 25 54  1  0  0  0  0
 25 55  1  0  0  0  0
 26 33  2  0  0  0  0
 28 31  1  0  0  0  0
 28 57  1  0  0  0  0
 28 58  1  0  0  0  0
 29 34  1  0  0  0  0
 29 61  1  0  0  0  0
 30 35  1  0  0  0  0
 30 62  1  0  0  0  0
 32 36  1  0  0  0  0
 32 63  1  0  0  0  0
 33 37  1  0  0  0  0
 33 64  1  0  0  0  0
 34 35  2  0  0  0  0
 34 65  1  0  0  0  0
 35 66  1  0  0  0  0
 36 37  2  0  0  0  0
 36 67  1  0  0  0  0
 37 68  1  0  0  0  0
M  END
> <PUBCHEM_COMPOUND_CID>
44328750

> <PUBCHEM_COMPOUND_CANONICALIZED>
1

> <PUBCHEM_CACTVS_COMPLEXITY>
882

> <PUBCHEM_CACTVS_HBOND_ACCEPTOR>
3

> <PUBCHEM_CACTVS_HBOND_DONOR>
3

> <PUBCHEM_CACTVS_ROTATABLE_BOND>
6

> <PUBCHEM_CACTVS_SUBSKEYS>
AAADceB7sAAAAAAAAAAAAAAAAAAAAWLFiwAwYMAAAAAAAFgB/gAAHgAQAAAADCjBngQywPPNkACoAyVyVACCgCQlEiAI2aE4dNgIYPrA1ZGUIQhglgDIyQccicCeyAACQAASACCQAASAACQAQAAAAAAAAA==

> <PUBCHEM_IUPAC_OPENEYE_NAME>
N-[2-(1-methylpyrrolidin-2-yl)ethyl]-3-(14-oxo-3,13,23-triazahexacyclo[14.7.0.02,10.04,9.011,15.017,22]tricosa-1,4,6,8,10,15,17,19,21-nonaen-3-yl)propanamide

> <PUBCHEM_IUPAC_CAS_NAME>
N-[2-(1-methyl-2-pyrrolidinyl)ethyl]-3-(14-oxo-3,13,23-triazahexacyclo[14.7.0.02,10.04,9.011,15.017,22]tricosa-1,4,6,8,10,15,17,19,21-nonaen-3-yl)propanamide

> <PUBCHEM_IUPAC_NAME_MARKUP>
<I>N</I>-[2-(1-methylpyrrolidin-2-yl)ethyl]-3-(14-oxo-3,13,23-triazahexacyclo[14.7.0.0<SUP>2,10</SUP>.0<SUP>4,9</SUP>.0<SUP>11,15</SUP>.0<SUP>17,22</SUP>]tricosa-1,4,6,8,10,15,17,19,21-nonaen-3-yl)propanamide

> <PUBCHEM_IUPAC_NAME>
N-[2-(1-methylpyrrolidin-2-yl)ethyl]-3-(14-oxo-3,13,23-triazahexacyclo[14.7.0.02,10.04,9.011,15.017,22]tricosa-1,4,6,8,10,15,17,19,21-nonaen-3-yl)propanamide

> <PUBCHEM_IUPAC_SYSTEMATIC_NAME>
N-[2-(1-methylpyrrolidin-2-yl)ethyl]-3-(14-oxidanylidene-3,13,23-triazahexacyclo[14.7.0.02,10.04,9.011,15.017,22]tricosa-1,4,6,8,10,15,17,19,21-nonaen-3-yl)propanamide

> <PUBCHEM_IUPAC_TRADITIONAL_NAME>
3-(14-keto-3,13,23-triazahexacyclo[14.7.0.02,10.04,9.011,15.017,22]tricosa-1,4,6,8,10,15,17,19,21-nonaen-3-yl)-N-[2-(1-methylpyrrolidin-2-yl)ethyl]propionamide

> <PUBCHEM_IUPAC_INCHI>
InChI=1S/C30H31N5O2/c1-34-15-6-7-18(34)12-14-31-24(36)13-16-35-23-11-5-3-9-20(23)25-21-17-32-30(37)27(21)26-19-8-2-4-10-22(19)33-28(26)29(25)35/h2-5,8-11,18,33H,6-7,12-17H2,1H3,(H,31,36)(H,32,37)

> <PUBCHEM_IUPAC_INCHIKEY>
WSXYBDKZFNJOTP-UHFFFAOYSA-N

> <PUBCHEM_XLOGP3_AA>
3.8

> <PUBCHEM_EXACT_MASS>
493.24777525

> <PUBCHEM_MOLECULAR_FORMULA>
C30H31N5O2

> <PUBCHEM_MOLECULAR_WEIGHT>
493.6

> <PUBCHEM_SMILES>
CN1CCCC1CCNC(=O)CCN2C3=CC=CC=C3C4=C5CNC(=O)C5=C6C7=CC=CC=C7NC6=C42

> <PUBCHEM_OPENEYE_CAN_SMILES>
CN1CCCC1CCNC(=O)CCN2C3=CC=CC=C3C4=C5CNC(=O)C5=C6C7=CC=CC=C7NC6=C42

> <PUBCHEM_OPENEYE_ISO_SMILES>
CN1CCCC1CCNC(=O)CCN2C3=CC=CC=C3C4=C5CNC(=O)C5=C6C7=CC=CC=C7NC6=C42

> <PUBCHEM_CACTVS_TPSA>
82.2

> <PUBCHEM_MONOISOTOPIC_WEIGHT>
493.24777525

> <PUBCHEM_TOTAL_CHARGE>
0

> <PUBCHEM_HEAVY_ATOM_COUNT>
37

> <PUBCHEM_ATOM_DEF_STEREO_COUNT>
0

> <PUBCHEM_ATOM_UDEF_STEREO_COUNT>
1

> <PUBCHEM_BOND_DEF_STEREO_COUNT>
0

> <PUBCHEM_BOND_UDEF_STEREO_COUNT>
0

> <PUBCHEM_ISOTOPIC_ATOM_COUNT>
0

> <PUBCHEM_COMPONENT_COUNT>
1

> <PUBCHEM_CACTVS_TAUTO_COUNT>
-1

> <PUBCHEM_COORDINATE_TYPE>
1
5
255

> <PUBCHEM_BONDANNOTATIONS>
13  14  8
13  16  8
14  15  8
14  19  8
15  18  8
16  17  8
17  18  8
17  24  8
19  20  8
19  29  8
20  30  8
24  26  8
24  32  8
26  33  8
29  34  8
30  35  8
32  36  8
33  37  8
34  35  8
36  37  8
4  13  8
4  20  8
5  16  8
5  26  8
8  12  3

$$$$
