52945348
  -OEChem-03202500012D

 40 43  0     0  0  0  0  0  0999 V2000
    6.2980    4.3683    0.0000 O   0  0  0  0  0  0  0  0  0  0  0  0
    4.6783   -2.6734    0.0000 N   0  0  0  0  0  0  0  0  0  0  0  0
    5.2619   -1.8687    0.0000 N   0  0  0  0  0  0  0  0  0  0  0  0
    7.1859    1.4484    0.0000 N   0  0  0  0  0  0  0  0  0  0  0  0
    2.8660   -2.8687    0.0000 N   0  0  0  0  0  0  0  0  0  0  0  0
    2.0000   -1.3687    0.0000 N   0  0  0  0  0  0  0  0  0  0  0  0
    2.8660    0.1313    0.0000 N   0  0  0  0  0  0  0  0  0  0  0  0
    4.9889   -3.6240    0.0000 C   0  0  0  0  0  0  0  0  0  0  0  0
    4.6783   -1.0640    0.0000 C   0  0  0  0  0  0  0  0  0  0  0  0
    3.7320   -1.3687    0.0000 C   0  0  0  0  0  0  0  0  0  0  0  0
    3.7320   -2.3687    0.0000 C   0  0  0  0  0  0  0  0  0  0  0  0
    4.9889   -0.1134    0.0000 C   0  0  0  0  0  0  0  0  0  0  0  0
    6.2781    1.0433    0.0000 C   0  0  0  0  0  0  0  0  0  0  0  0
    5.6103    1.7876    0.0000 C   0  0  0  0  0  0  0  0  0  0  0  0
    5.9674    0.0928    0.0000 C   0  0  0  0  0  0  0  0  0  0  0  0
    5.9674   -3.8302    0.0000 C   0  0  0  0  0  0  0  0  0  0  0  0
    4.3211   -4.3683    0.0000 C   0  0  0  0  0  0  0  0  0  0  0  0
    4.3211    0.6309    0.0000 C   0  0  0  0  0  0  0  0  0  0  0  0
    2.8660   -0.8687    0.0000 C   0  0  0  0  0  0  0  0  0  0  0  0
    4.6318    1.5814    0.0000 C   0  0  0  0  0  0  0  0  0  0  0  0
    6.1110    2.6463    0.0000 C   0  0  0  0  0  0  0  0  0  0  0  0
    7.0828    2.4371    0.0000 C   0  0  0  0  0  0  0  0  0  0  0  0
    2.0000   -2.3687    0.0000 C   0  0  0  0  0  0  0  0  0  0  0  0
    5.7074    3.5613    0.0000 C   0  0  0  0  0  0  0  0  0  0  0  0
    5.4030   -3.1625    0.0000 H   0  0  0  0  0  0  0  0  0  0  0  0
    6.3815   -0.3687    0.0000 H   0  0  0  0  0  0  0  0  0  0  0  0
    5.8396   -4.4368    0.0000 H   0  0  0  0  0  0  0  0  0  0  0  0
    6.5741   -3.9580    0.0000 H   0  0  0  0  0  0  0  0  0  0  0  0
    6.0953   -3.2235    0.0000 H   0  0  0  0  0  0  0  0  0  0  0  0
    3.8596   -3.9542    0.0000 H   0  0  0  0  0  0  0  0  0  0  0  0
    3.9070   -4.8297    0.0000 H   0  0  0  0  0  0  0  0  0  0  0  0
    4.7826   -4.7823    0.0000 H   0  0  0  0  0  0  0  0  0  0  0  0
    3.7144    0.5030    0.0000 H   0  0  0  0  0  0  0  0  0  0  0  0
    4.2177    2.0428    0.0000 H   0  0  0  0  0  0  0  0  0  0  0  0
    7.7228    1.1384    0.0000 H   0  0  0  0  0  0  0  0  0  0  0  0
    7.5443    2.8512    0.0000 H   0  0  0  0  0  0  0  0  0  0  0  0
    1.4631   -2.6787    0.0000 H   0  0  0  0  0  0  0  0  0  0  0  0
    2.3291    0.4413    0.0000 H   0  0  0  0  0  0  0  0  0  0  0  0
    3.4030    0.4413    0.0000 H   0  0  0  0  0  0  0  0  0  0  0  0
    5.0911    3.6282    0.0000 H   0  0  0  0  0  0  0  0  0  0  0  0
  1 24  2  0  0  0  0
  2  3  1  0  0  0  0
  2  8  1  0  0  0  0
  2 11  1  0  0  0  0
  3  9  2  0  0  0  0
  4 13  1  0  0  0  0
  4 22  1  0  0  0  0
  4 35  1  0  0  0  0
  5 11  2  0  0  0  0
  5 23  1  0  0  0  0
  6 19  1  0  0  0  0
  6 23  2  0  0  0  0
  7 19  1  0  0  0  0
  7 38  1  0  0  0  0
  7 39  1  0  0  0  0
  8 16  1  0  0  0  0
  8 17  1  0  0  0  0
  8 25  1  0  0  0  0
  9 10  1  0  0  0  0
  9 12  1  0  0  0  0
 10 11  1  0  0  0  0
 10 19  2  0  0  0  0
 12 15  2  0  0  0  0
 12 18  1  0  0  0  0
 13 14  2  0  0  0  0
 13 15  1  0  0  0  0
 14 20  1  0  0  0  0
 14 21  1  0  0  0  0
 15 26  1  0  0  0  0
 16 27  1  0  0  0  0
 16 28  1  0  0  0  0
 16 29  1  0  0  0  0
 17 30  1  0  0  0  0
 17 31  1  0  0  0  0
 17 32  1  0  0  0  0
 18 20  2  0  0  0  0
 18 33  1  0  0  0  0
 20 34  1  0  0  0  0
 21 22  2  0  0  0  0
 21 24  1  0  0  0  0
 22 36  1  0  0  0  0
 23 37  1  0  0  0  0
 24 40  1  0  0  0  0
M  END
> <PUBCHEM_COMPOUND_CID>
52945348

> <PUBCHEM_COMPOUND_CANONICALIZED>
1

> <PUBCHEM_CACTVS_COMPLEXITY>
474

> <PUBCHEM_CACTVS_HBOND_ACCEPTOR>
5

> <PUBCHEM_CACTVS_HBOND_DONOR>
2

> <PUBCHEM_CACTVS_ROTATABLE_BOND>
3

> <PUBCHEM_CACTVS_SUBSKEYS>
AAADceB7oAAAAAAAAAAAAAAAAAAAAWLAAAA8QAAAAAAAAFgB/gAAHgAYAAAADCjhnwY/8P7JkACqAz535ACShCs1gqAd2aE4ZNiIKPrA3dGEpYhomALIyecciMCOwAAAQAACAACAAACAAAQAAAAAAAAAAA==

> <PUBCHEM_IUPAC_OPENEYE_NAME>
6-(4-amino-1-isopropyl-pyrazolo[3,4-d]pyrimidin-3-yl)-1H-indole-3-carbaldehyde

> <PUBCHEM_IUPAC_CAS_NAME>
6-(4-amino-1-propan-2-yl-3-pyrazolo[3,4-d]pyrimidinyl)-1H-indole-3-carboxaldehyde

> <PUBCHEM_IUPAC_NAME_MARKUP>
6-(4-amino-1-propan-2-ylpyrazolo[3,4-d]pyrimidin-3-yl)-1<I>H</I>-indole-3-carbaldehyde

> <PUBCHEM_IUPAC_NAME>
6-(4-amino-1-propan-2-ylpyrazolo[3,4-d]pyrimidin-3-yl)-1H-indole-3-carbaldehyde

> <PUBCHEM_IUPAC_SYSTEMATIC_NAME>
6-(4-azanyl-1-propan-2-yl-pyrazolo[3,4-d]pyrimidin-3-yl)-1H-indole-3-carbaldehyde

> <PUBCHEM_IUPAC_TRADITIONAL_NAME>
6-(4-amino-1-isopropyl-pyrazolo[3,4-d]pyrimidin-3-yl)-1H-indole-3-carbaldehyde

> <PUBCHEM_IUPAC_INCHI>
InChI=1S/C17H16N6O/c1-9(2)23-17-14(16(18)20-8-21-17)15(22-23)10-3-4-12-11(7-24)6-19-13(12)5-10/h3-9,19H,1-2H3,(H2,18,20,21)

> <PUBCHEM_IUPAC_INCHIKEY>
QRJVSLZNMWIKRS-UHFFFAOYSA-N

> <PUBCHEM_XLOGP3_AA>
1.8

> <PUBCHEM_EXACT_MASS>
320.13855916

> <PUBCHEM_MOLECULAR_FORMULA>
C17H16N6O

> <PUBCHEM_MOLECULAR_WEIGHT>
320.3

> <PUBCHEM_SMILES>
CC(C)N1C2=NC=NC(=C2C(=N1)C3=CC4=C(C=C3)C(=CN4)C=O)N

> <PUBCHEM_OPENEYE_CAN_SMILES>
CC(C)N1C2=NC=NC(=C2C(=N1)C3=CC4=C(C=C3)C(=CN4)C=O)N

> <PUBCHEM_OPENEYE_ISO_SMILES>
CC(C)N1C2=NC=NC(=C2C(=N1)C3=CC4=C(C=C3)C(=CN4)C=O)N

> <PUBCHEM_CACTVS_TPSA>
102

> <PUBCHEM_MONOISOTOPIC_WEIGHT>
320.13855916

> <PUBCHEM_TOTAL_CHARGE>
0

> <PUBCHEM_HEAVY_ATOM_COUNT>
24

> <PUBCHEM_ATOM_DEF_STEREO_COUNT>
0

> <PUBCHEM_ATOM_UDEF_STEREO_COUNT>
0

> <PUBCHEM_BOND_DEF_STEREO_COUNT>
0

> <PUBCHEM_BOND_UDEF_STEREO_COUNT>
0

> <PUBCHEM_ISOTOPIC_ATOM_COUNT>
0

> <PUBCHEM_COMPONENT_COUNT>
1

> <PUBCHEM_CACTVS_TAUTO_COUNT>
-1

> <PUBCHEM_COORDINATE_TYPE>
1
5
255

> <PUBCHEM_BONDANNOTATIONS>
10  11  8
10  19  8
12  15  8
12  18  8
13  14  8
13  15  8
14  20  8
14  21  8
18  20  8
2  11  8
2  3  8
21  22  8
3  9  8
4  13  8
4  22  8
5  11  8
5  23  8
6  19  8
6  23  8
9  10  8

$$$$
