57395117
  -OEChem-03202500412D

 61 66  0     1  0  0  0  0  0999 V2000
   10.2838   -2.5783    0.0000 F   0  0  0  0  0  0  0  0  0  0  0  0
    4.3910   -3.2334    0.0000 O   0  0  0  0  0  0  0  0  0  0  0  0
    5.7021    1.3878    0.0000 N   0  0  3  0  0  0  0  0  0  0  0  0
    4.7511   -1.5392    0.0000 N   0  0  0  0  0  0  0  0  0  0  0  0
    7.2156    3.5579    0.0000 N   0  0  0  0  0  0  0  0  0  0  0  0
    6.7764   -2.0324    0.0000 N   0  0  0  0  0  0  0  0  0  0  0  0
    4.7511    0.0788    0.0000 C   0  0  2  0  0  0  0  0  0  0  0  0
    5.7021    0.3878    0.0000 C   0  0  0  0  0  0  0  0  0  0  0  0
    4.1633    0.8878    0.0000 C   0  0  0  0  0  0  0  0  0  0  0  0
    4.7511    1.6968    0.0000 C   0  0  0  0  0  0  0  0  0  0  0  0
    5.3388   -0.7302    0.0000 C   0  0  0  0  0  0  0  0  0  0  0  0
    6.5111    1.9756    0.0000 C   0  0  3  0  0  0  0  0  0  0  0  0
    3.8000   -0.2302    0.0000 C   0  0  0  0  0  0  0  0  0  0  0  0
    7.4247    1.5688    0.0000 C   0  0  0  0  0  0  0  0  0  0  0  0
    3.8000   -1.2302    0.0000 C   0  0  0  0  0  0  0  0  0  0  0  0
    6.4066    2.9701    0.0000 C   0  0  0  0  0  0  0  0  0  0  0  0
    8.2337    2.1566    0.0000 C   0  0  0  0  0  0  0  0  0  0  0  0
    8.1292    3.1512    0.0000 C   0  0  1  0  0  0  0  0  0  0  0  0
    2.9061    0.3044    0.0000 C   0  0  0  0  0  0  0  0  0  0  0  0
    2.9061   -1.7649    0.0000 C   0  0  0  0  0  0  0  0  0  0  0  0
    5.0601   -2.4903    0.0000 C   0  0  0  0  0  0  0  0  0  0  0  0
    2.0000   -0.2094    0.0000 C   0  0  0  0  0  0  0  0  0  0  0  0
    8.9382    3.7389    0.0000 C   0  0  0  0  0  0  0  0  0  0  0  0
    2.0000   -1.2510    0.0000 C   0  0  0  0  0  0  0  0  0  0  0  0
    6.0382   -2.6982    0.0000 C   0  0  0  0  0  0  0  0  0  0  0  0
    6.4418   -3.6067    0.0000 C   0  0  0  0  0  0  0  0  0  0  0  0
    7.6386   -2.5272    0.0000 C   0  0  0  0  0  0  0  0  0  0  0  0
    7.4307   -3.5054    0.0000 C   0  0  0  0  0  0  0  0  0  0  0  0
    8.5896   -2.2182    0.0000 C   0  0  0  0  0  0  0  0  0  0  0  0
    8.1738   -4.1745    0.0000 C   0  0  0  0  0  0  0  0  0  0  0  0
    9.3328   -2.8873    0.0000 C   0  0  0  0  0  0  0  0  0  0  0  0
    9.1249   -3.8655    0.0000 C   0  0  0  0  0  0  0  0  0  0  0  0
    5.8310   -0.2187    0.0000 H   0  0  0  0  0  0  0  0  0  0  0  0
    6.3187    0.4526    0.0000 H   0  0  0  0  0  0  0  0  0  0  0  0
    3.7025    1.3027    0.0000 H   0  0  0  0  0  0  0  0  0  0  0  0
    3.7025    0.4729    0.0000 H   0  0  0  0  0  0  0  0  0  0  0  0
    5.0032    2.2632    0.0000 H   0  0  0  0  0  0  0  0  0  0  0  0
    4.2141    2.0068    0.0000 H   0  0  0  0  0  0  0  0  0  0  0  0
    5.7996   -1.1451    0.0000 H   0  0  0  0  0  0  0  0  0  0  0  0
    5.7996   -0.3154    0.0000 H   0  0  0  0  0  0  0  0  0  0  0  0
    6.5760    1.3590    0.0000 H   0  0  0  0  0  0  0  0  0  0  0  0
    7.0780    1.0548    0.0000 H   0  0  0  0  0  0  0  0  0  0  0  0
    7.8707    1.1382    0.0000 H   0  0  0  0  0  0  0  0  0  0  0  0
    6.1348    3.5274    0.0000 H   0  0  0  0  0  0  0  0  0  0  0  0
    5.8106    2.7992    0.0000 H   0  0  0  0  0  0  0  0  0  0  0  0
    8.5055    1.5994    0.0000 H   0  0  0  0  0  0  0  0  0  0  0  0
    8.8297    2.3275    0.0000 H   0  0  0  0  0  0  0  0  0  0  0  0
    8.0644    3.7678    0.0000 H   0  0  0  0  0  0  0  0  0  0  0  0
    2.9132    0.9244    0.0000 H   0  0  0  0  0  0  0  0  0  0  0  0
    7.1508    4.1745    0.0000 H   0  0  0  0  0  0  0  0  0  0  0  0
    2.9132   -2.3849    0.0000 H   0  0  0  0  0  0  0  0  0  0  0  0
    1.4643    0.1026    0.0000 H   0  0  0  0  0  0  0  0  0  0  0  0
    9.3026    3.2374    0.0000 H   0  0  0  0  0  0  0  0  0  0  0  0
    9.4398    4.1034    0.0000 H   0  0  0  0  0  0  0  0  0  0  0  0
    8.5738    4.2405    0.0000 H   0  0  0  0  0  0  0  0  0  0  0  0
    1.4643   -1.5631    0.0000 H   0  0  0  0  0  0  0  0  0  0  0  0
    6.7105   -1.4159    0.0000 H   0  0  0  0  0  0  0  0  0  0  0  0
    6.1308   -4.1431    0.0000 H   0  0  0  0  0  0  0  0  0  0  0  0
    8.7186   -1.6118    0.0000 H   0  0  0  0  0  0  0  0  0  0  0  0
    8.0449   -4.7810    0.0000 H   0  0  0  0  0  0  0  0  0  0  0  0
    9.5856   -4.2803    0.0000 H   0  0  0  0  0  0  0  0  0  0  0  0
  1 31  1  0  0  0  0
  2 21  2  0  0  0  0
  3  8  1  0  0  0  0
  3 10  1  0  0  0  0
  3 12  1  0  0  0  0
  4 11  1  0  0  0  0
  4 15  1  0  0  0  0
  4 21  1  0  0  0  0
  5 16  1  0  0  0  0
  5 18  1  0  0  0  0
  5 50  1  0  0  0  0
  6 25  1  0  0  0  0
  6 27  1  0  0  0  0
  6 57  1  0  0  0  0
  7  8  1  0  0  0  0
  7  9  1  1  0  0  0
  7 11  1  0  0  0  0
  7 13  1  0  0  0  0
  8 33  1  0  0  0  0
  8 34  1  0  0  0  0
  9 10  1  0  0  0  0
  9 35  1  0  0  0  0
  9 36  1  0  0  0  0
 10 37  1  0  0  0  0
 10 38  1  0  0  0  0
 11 39  1  0  0  0  0
 11 40  1  0  0  0  0
 12 14  1  0  0  0  0
 12 16  1  0  0  0  0
 12 41  1  0  0  0  0
 13 15  1  0  0  0  0
 13 19  2  0  0  0  0
 14 17  1  0  0  0  0
 14 42  1  0  0  0  0
 14 43  1  0  0  0  0
 15 20  2  0  0  0  0
 16 44  1  0  0  0  0
 16 45  1  0  0  0  0
 17 18  1  0  0  0  0
 17 46  1  0  0  0  0
 17 47  1  0  0  0  0
 18 23  1  6  0  0  0
 18 48  1  0  0  0  0
 19 22  1  0  0  0  0
 19 49  1  0  0  0  0
 20 24  1  0  0  0  0
 20 51  1  0  0  0  0
 21 25  1  0  0  0  0
 22 24  2  0  0  0  0
 22 52  1  0  0  0  0
 23 53  1  0  0  0  0
 23 54  1  0  0  0  0
 23 55  1  0  0  0  0
 24 56  1  0  0  0  0
 25 26  2  0  0  0  0
 26 28  1  0  0  0  0
 26 58  1  0  0  0  0
 27 28  2  0  0  0  0
 27 29  1  0  0  0  0
 28 30  1  0  0  0  0
 29 31  2  0  0  0  0
 29 59  1  0  0  0  0
 30 32  2  0  0  0  0
 30 60  1  0  0  0  0
 31 32  1  0  0  0  0
 32 61  1  0  0  0  0
M  END
> <PUBCHEM_COMPOUND_CID>
57395117

> <PUBCHEM_COMPOUND_CANONICALIZED>
1

> <PUBCHEM_CACTVS_COMPLEXITY>
720

> <PUBCHEM_CACTVS_HBOND_ACCEPTOR>
4

> <PUBCHEM_CACTVS_HBOND_DONOR>
2

> <PUBCHEM_CACTVS_ROTATABLE_BOND>
2

> <PUBCHEM_CACTVS_SUBSKEYS>
AAADceB7oQAAAAAAAAAAAAAAAAAAAWLFgAA8YIAAAAAAAFgB9AAAHwAQAAAADijBngwywPPJkACoAyVyVACCgCAnAiAImaG4ZNgIYPLA1bGUIQhglgDIyYcYicCfgAAAAAACAAAAAAAAAAQAAAAAAAAAAA==

> <PUBCHEM_IUPAC_OPENEYE_NAME>
(6-fluoro-1H-indol-2-yl)-[(3R)-1'-[(6R)-6-methyl-3-piperidyl]spiro[indoline-3,3'-pyrrolidine]-1-yl]methanone

> <PUBCHEM_IUPAC_CAS_NAME>
(6-fluoro-1H-indol-2-yl)-[(3R)-1'-[(6R)-6-methyl-3-piperidinyl]-1-spiro[2H-indole-3,3'-pyrrolidine]yl]methanone

> <PUBCHEM_IUPAC_NAME_MARKUP>
(6-fluoro-1<I>H</I>-indol-2-yl)-[(3<I>R</I>)-1&apos;-[(6<I>R</I>)-6-methylpiperidin-3-yl]spiro[2<I>H</I>-indole-3,3&apos;-pyrrolidine]-1-yl]methanone

> <PUBCHEM_IUPAC_NAME>
(6-fluoro-1H-indol-2-yl)-[(3R)-1'-[(6R)-6-methylpiperidin-3-yl]spiro[2H-indole-3,3'-pyrrolidine]-1-yl]methanone

> <PUBCHEM_IUPAC_SYSTEMATIC_NAME>
(6-fluoranyl-1H-indol-2-yl)-[(3R)-1'-[(6R)-6-methylpiperidin-3-yl]spiro[2H-indole-3,3'-pyrrolidine]-1-yl]methanone

> <PUBCHEM_IUPAC_TRADITIONAL_NAME>
(6-fluoro-1H-indol-2-yl)-[(3R)-1'-[(6R)-6-methyl-3-piperidyl]spiro[indoline-3,3'-pyrrolidine]-1-yl]methanone

> <PUBCHEM_IUPAC_INCHI>
InChI=1S/C26H29FN4O/c1-17-6-9-20(14-28-17)30-11-10-26(15-30)16-31(24-5-3-2-4-21(24)26)25(32)23-12-18-7-8-19(27)13-22(18)29-23/h2-5,7-8,12-13,17,20,28-29H,6,9-11,14-16H2,1H3/t17-,20?,26-/m1/s1

> <PUBCHEM_IUPAC_INCHIKEY>
MYPHZBOANNRFAS-JTPVZTEWSA-N

> <PUBCHEM_XLOGP3_AA>
4.1

> <PUBCHEM_EXACT_MASS>
432.23253972

> <PUBCHEM_MOLECULAR_FORMULA>
C26H29FN4O

> <PUBCHEM_MOLECULAR_WEIGHT>
432.5

> <PUBCHEM_SMILES>
C[C@@H]1CCC(CN1)N2CC[C@@]3(C2)CN(C4=CC=CC=C34)C(=O)C5=CC6=C(N5)C=C(C=C6)F

> <PUBCHEM_OPENEYE_CAN_SMILES>
CC1CCC(CN1)N2CCC3(C2)CN(C4=CC=CC=C34)C(=O)C5=CC6=C(N5)C=C(C=C6)F

> <PUBCHEM_OPENEYE_ISO_SMILES>
C[C@@H]1CCC(CN1)N2CC[C@@]3(C2)CN(C4=CC=CC=C34)C(=O)C5=CC6=C(N5)C=C(C=C6)F

> <PUBCHEM_CACTVS_TPSA>
51.4

> <PUBCHEM_MONOISOTOPIC_WEIGHT>
432.23253972

> <PUBCHEM_TOTAL_CHARGE>
0

> <PUBCHEM_HEAVY_ATOM_COUNT>
32

> <PUBCHEM_ATOM_DEF_STEREO_COUNT>
2

> <PUBCHEM_ATOM_UDEF_STEREO_COUNT>
1

> <PUBCHEM_BOND_DEF_STEREO_COUNT>
0

> <PUBCHEM_BOND_UDEF_STEREO_COUNT>
0

> <PUBCHEM_ISOTOPIC_ATOM_COUNT>
0

> <PUBCHEM_COMPONENT_COUNT>
1

> <PUBCHEM_CACTVS_TAUTO_COUNT>
-1

> <PUBCHEM_COORDINATE_TYPE>
1
5
255

> <PUBCHEM_BONDANNOTATIONS>
13  15  8
13  19  8
15  20  8
18  23  6
19  22  8
20  24  8
22  24  8
25  26  8
26  28  8
27  28  8
27  29  8
28  30  8
29  31  8
12  3  3
30  32  8
31  32  8
6  25  8
6  27  8
7  9  5

$$$$
