44364058
  -OEChem-03202500192D

 59 67  0     1  0  0  0  0  0999 V2000
    3.4737   -3.7968    0.0000 O   0  0  0  0  0  0  0  0  0  0  0  0
    2.2501   -0.4351    0.0000 O   0  0  0  0  0  0  0  0  0  0  0  0
    7.5253    1.2641    0.0000 N   0  0  0  0  0  0  0  0  0  0  0  0
    6.9273   -1.7005    0.0000 N   0  0  0  0  0  0  0  0  0  0  0  0
    6.2433    0.1789    0.0000 N   0  0  0  0  0  0  0  0  0  0  0  0
    2.5826   -2.2176    0.0000 N   0  0  0  0  0  0  0  0  0  0  0  0
    8.0031   -0.6844    0.0000 C   0  0  1  0  0  0  0  0  0  0  0  0
    8.2619    0.2815    0.0000 C   0  0  2  0  0  0  0  0  0  0  0  0
    9.4020   -1.1932    0.0000 C   0  0  0  0  0  0  0  0  0  0  0  0
    9.6609   -0.2273    0.0000 C   0  0  0  0  0  0  0  0  0  0  0  0
    5.9425   -1.5268    0.0000 C   0  0  0  0  0  0  0  0  0  0  0  0
    5.6005   -0.5871    0.0000 C   0  0  0  0  0  0  0  0  0  0  0  0
    5.2853   -2.3350    0.0000 C   0  0  0  0  0  0  0  0  0  0  0  0
    4.5776   -0.3904    0.0000 C   0  0  0  0  0  0  0  0  0  0  0  0
    6.9003   -2.6939    0.0000 C   0  0  0  0  0  0  0  0  0  0  0  0
    5.5840    0.9226    0.0000 C   0  0  0  0  0  0  0  0  0  0  0  0
    7.0253    2.1302    0.0000 C   0  0  0  0  0  0  0  0  0  0  0  0
    5.9733   -3.0521    0.0000 C   0  0  0  0  0  0  0  0  0  0  0  0
    4.6436    0.6012    0.0000 C   0  0  0  0  0  0  0  0  0  0  0  0
    4.2582   -2.1620    0.0000 C   0  0  0  0  0  0  0  0  0  0  0  0
    3.9019   -1.1832    0.0000 C   0  0  0  0  0  0  0  0  0  0  0  0
    7.5253    2.9962    0.0000 C   0  0  0  0  0  0  0  0  0  0  0  0
    7.7162   -3.3311    0.0000 C   0  0  0  0  0  0  0  0  0  0  0  0
    5.7995    1.9352    0.0000 C   0  0  0  0  0  0  0  0  0  0  0  0
    5.7979   -4.0724    0.0000 C   0  0  0  0  0  0  0  0  0  0  0  0
    3.8535    1.2700    0.0000 C   0  0  0  0  0  0  0  0  0  0  0  0
    3.4406   -2.7974    0.0000 C   0  0  0  0  0  0  0  0  0  0  0  0
    2.8672   -1.2220    0.0000 C   0  0  0  0  0  0  0  0  0  0  0  0
    7.5644   -4.3551    0.0000 C   0  0  0  0  0  0  0  0  0  0  0  0
    5.0250    2.6220    0.0000 C   0  0  0  0  0  0  0  0  0  0  0  0
    6.5988   -4.7282    0.0000 C   0  0  0  0  0  0  0  0  0  0  0  0
    4.0454    2.2872    0.0000 C   0  0  0  0  0  0  0  0  0  0  0  0
    7.0253    3.8622    0.0000 C   0  0  0  0  0  0  0  0  0  0  0  0
    8.5253    2.9962    0.0000 C   0  0  0  0  0  0  0  0  0  0  0  0
    7.5253    4.7282    0.0000 C   0  0  0  0  0  0  0  0  0  0  0  0
    9.0253    3.8622    0.0000 C   0  0  0  0  0  0  0  0  0  0  0  0
    8.5253    4.7282    0.0000 C   0  0  0  0  0  0  0  0  0  0  0  0
    7.7831   -1.5054    0.0000 H   0  0  0  0  0  0  0  0  0  0  0  0
    8.4819    1.1026    0.0000 H   0  0  0  0  0  0  0  0  0  0  0  0
    9.2071   -1.7818    0.0000 H   0  0  0  0  0  0  0  0  0  0  0  0
    9.9960   -1.3710    0.0000 H   0  0  0  0  0  0  0  0  0  0  0  0
   10.2548   -0.4051    0.0000 H   0  0  0  0  0  0  0  0  0  0  0  0
    9.8558    0.3612    0.0000 H   0  0  0  0  0  0  0  0  0  0  0  0
    6.5504    2.5287    0.0000 H   0  0  0  0  0  0  0  0  0  0  0  0
    6.5504    1.7316    0.0000 H   0  0  0  0  0  0  0  0  0  0  0  0
    8.2919   -3.1009    0.0000 H   0  0  0  0  0  0  0  0  0  0  0  0
    6.3884    2.1289    0.0000 H   0  0  0  0  0  0  0  0  0  0  0  0
    5.2171   -4.2892    0.0000 H   0  0  0  0  0  0  0  0  0  0  0  0
    3.2692    1.0627    0.0000 H   0  0  0  0  0  0  0  0  0  0  0  0
    2.0000   -2.4297    0.0000 H   0  0  0  0  0  0  0  0  0  0  0  0
    8.0486   -4.7423    0.0000 H   0  0  0  0  0  0  0  0  0  0  0  0
    5.1470    3.2299    0.0000 H   0  0  0  0  0  0  0  0  0  0  0  0
    6.5009   -5.3404    0.0000 H   0  0  0  0  0  0  0  0  0  0  0  0
    3.5769    2.6932    0.0000 H   0  0  0  0  0  0  0  0  0  0  0  0
    6.4053    3.8622    0.0000 H   0  0  0  0  0  0  0  0  0  0  0  0
    8.8353    2.4592    0.0000 H   0  0  0  0  0  0  0  0  0  0  0  0
    7.2153    5.2652    0.0000 H   0  0  0  0  0  0  0  0  0  0  0  0
    9.6453    3.8622    0.0000 H   0  0  0  0  0  0  0  0  0  0  0  0
    8.8353    5.2652    0.0000 H   0  0  0  0  0  0  0  0  0  0  0  0
  1 27  2  0  0  0  0
  2 28  2  0  0  0  0
  3  7  1  0  0  0  0
  3  8  1  0  0  0  0
  3 17  1  0  0  0  0
  4  7  1  0  0  0  0
  4 11  1  0  0  0  0
  4 15  1  0  0  0  0
  5  8  1  0  0  0  0
  5 12  1  0  0  0  0
  5 16  1  0  0  0  0
  6 27  1  0  0  0  0
  6 28  1  0  0  0  0
  6 50  1  0  0  0  0
  7  9  1  0  0  0  0
  7 38  1  1  0  0  0
  8 10  1  0  0  0  0
  8 39  1  6  0  0  0
  9 10  1  0  0  0  0
  9 40  1  0  0  0  0
  9 41  1  0  0  0  0
 10 42  1  0  0  0  0
 10 43  1  0  0  0  0
 11 12  2  0  0  0  0
 11 13  1  0  0  0  0
 12 14  1  0  0  0  0
 13 18  1  0  0  0  0
 13 20  2  0  0  0  0
 14 19  1  0  0  0  0
 14 21  2  0  0  0  0
 15 18  1  0  0  0  0
 15 23  2  0  0  0  0
 16 19  1  0  0  0  0
 16 24  2  0  0  0  0
 17 22  1  0  0  0  0
 17 44  1  0  0  0  0
 17 45  1  0  0  0  0
 18 25  2  0  0  0  0
 19 26  2  0  0  0  0
 20 21  1  0  0  0  0
 20 27  1  0  0  0  0
 21 28  1  0  0  0  0
 22 33  2  0  0  0  0
 22 34  1  0  0  0  0
 23 29  1  0  0  0  0
 23 46  1  0  0  0  0
 24 30  1  0  0  0  0
 24 47  1  0  0  0  0
 25 31  1  0  0  0  0
 25 48  1  0  0  0  0
 26 32  1  0  0  0  0
 26 49  1  0  0  0  0
 29 31  2  0  0  0  0
 29 51  1  0  0  0  0
 30 32  2  0  0  0  0
 30 52  1  0  0  0  0
 31 53  1  0  0  0  0
 32 54  1  0  0  0  0
 33 35  1  0  0  0  0
 33 55  1  0  0  0  0
 34 36  2  0  0  0  0
 34 56  1  0  0  0  0
 35 37  2  0  0  0  0
 35 57  1  0  0  0  0
 36 37  1  0  0  0  0
 36 58  1  0  0  0  0
 37 59  1  0  0  0  0
M  END
> <PUBCHEM_COMPOUND_CID>
44364058

> <PUBCHEM_COMPOUND_CANONICALIZED>
1

> <PUBCHEM_CACTVS_COMPLEXITY>
914

> <PUBCHEM_CACTVS_HBOND_ACCEPTOR>
3

> <PUBCHEM_CACTVS_HBOND_DONOR>
1

> <PUBCHEM_CACTVS_ROTATABLE_BOND>
2

> <PUBCHEM_CACTVS_SUBSKEYS>
AAADceB7sAAAAAAAAAAAAAAAAAAAAWLFiwAwYMGABYAWAFix/gAAHgAQAAAADAjBngQxwPPMEACoAyVyVACCgCQlEiAI2CE4dNiIYPLAlZGUIQhohCLIyScdicCeyAACQAASACCQAASAACQAQAAAAAAAAA==

> <PUBCHEM_IUPAC_OPENEYE_NAME>
(15S,18R)-28-benzyl-4,14,19,28-tetrazaoctacyclo[12.11.2.115,18.02,6.07,27.08,13.019,26.020,25]octacosa-1,6,8,10,12,20,22,24,26-nonaene-3,5-dione

> <PUBCHEM_IUPAC_CAS_NAME>
(15S,18R)-28-(phenylmethyl)-4,14,19,28-tetrazaoctacyclo[12.11.2.115,18.02,6.07,27.08,13.019,26.020,25]octacosa-1,6,8,10,12,20,22,24,26-nonaene-3,5-dione

> <PUBCHEM_IUPAC_NAME_MARKUP>
(15<I>S</I>,18<I>R</I>)-28-benzyl-4,14,19,28-tetrazaoctacyclo[12.11.2.1<SUP>15,18</SUP>.0<SUP>2,6</SUP>.0<SUP>7,27</SUP>.0<SUP>8,13</SUP>.0<SUP>19,26</SUP>.0<SUP>20,25</SUP>]octacosa-1,6,8,10,12,20,22,24,26-nonaene-3,5-dione

> <PUBCHEM_IUPAC_NAME>
(15S,18R)-28-benzyl-4,14,19,28-tetrazaoctacyclo[12.11.2.115,18.02,6.07,27.08,13.019,26.020,25]octacosa-1,6,8,10,12,20,22,24,26-nonaene-3,5-dione

> <PUBCHEM_IUPAC_SYSTEMATIC_NAME>
(15S,18R)-28-(phenylmethyl)-4,14,19,28-tetrazaoctacyclo[12.11.2.115,18.02,6.07,27.08,13.019,26.020,25]octacosa-1,6,8,10,12,20,22,24,26-nonaene-3,5-dione

> <PUBCHEM_IUPAC_TRADITIONAL_NAME>
(15S,18R)-28-benzyl-4,14,19,28-tetrazaoctacyclo[12.11.2.115,18.02,6.07,27.08,13.019,26.020,25]octacosa-1,6,8,10,12,20,22,24,26-nonaene-3,5-quinone

> <PUBCHEM_IUPAC_INCHI>
InChI=1S/C31H22N4O2/c36-30-26-24-18-10-4-6-12-20(18)34-22-14-15-23(33(22)16-17-8-2-1-3-9-17)35-21-13-7-5-11-19(21)25(29(35)28(24)34)27(26)31(37)32-30/h1-13,22-23H,14-16H2,(H,32,36,37)/t22-,23+

> <PUBCHEM_IUPAC_INCHIKEY>
FXBUSWYKVIRYNT-ZRZAMGCNSA-N

> <PUBCHEM_XLOGP3_AA>
5.5

> <PUBCHEM_EXACT_MASS>
482.17427596

> <PUBCHEM_MOLECULAR_FORMULA>
C31H22N4O2

> <PUBCHEM_MOLECULAR_WEIGHT>
482.5

> <PUBCHEM_SMILES>
C1C[C@H]2N([C@@H]1N3C4=CC=CC=C4C5=C6C(=C7C8=CC=CC=C8N2C7=C53)C(=O)NC6=O)CC9=CC=CC=C9

> <PUBCHEM_OPENEYE_CAN_SMILES>
C1CC2N(C1N3C4=CC=CC=C4C5=C6C(=C7C8=CC=CC=C8N2C7=C53)C(=O)NC6=O)CC9=CC=CC=C9

> <PUBCHEM_OPENEYE_ISO_SMILES>
C1C[C@H]2N([C@@H]1N3C4=CC=CC=C4C5=C6C(=C7C8=CC=CC=C8N2C7=C53)C(=O)NC6=O)CC9=CC=CC=C9

> <PUBCHEM_CACTVS_TPSA>
59.3

> <PUBCHEM_MONOISOTOPIC_WEIGHT>
482.17427596

> <PUBCHEM_TOTAL_CHARGE>
0

> <PUBCHEM_HEAVY_ATOM_COUNT>
37

> <PUBCHEM_ATOM_DEF_STEREO_COUNT>
2

> <PUBCHEM_ATOM_UDEF_STEREO_COUNT>
0

> <PUBCHEM_BOND_DEF_STEREO_COUNT>
0

> <PUBCHEM_BOND_UDEF_STEREO_COUNT>
0

> <PUBCHEM_ISOTOPIC_ATOM_COUNT>
0

> <PUBCHEM_COMPONENT_COUNT>
1

> <PUBCHEM_CACTVS_TAUTO_COUNT>
-1

> <PUBCHEM_COORDINATE_TYPE>
1
5
255

> <PUBCHEM_BONDANNOTATIONS>
11  12  8
11  13  8
12  14  8
13  18  8
13  20  8
14  19  8
14  21  8
15  18  8
15  23  8
16  19  8
16  24  8
18  25  8
19  26  8
20  21  8
22  33  8
22  34  8
23  29  8
24  30  8
25  31  8
26  32  8
29  31  8
30  32  8
33  35  8
34  36  8
35  37  8
36  37  8
4  11  8
4  15  8
5  12  8
5  16  8
7  38  5
8  39  6

$$$$
