49830447
  -OEChem-03202504042D

 34 36  0     0  0  0  0  0  0999 V2000
    5.4641    2.0000    0.0000 N   0  0  0  0  0  0  0  0  0  0  0  0
    7.2764   -0.8047    0.0000 N   0  0  0  0  0  0  0  0  0  0  0  0
    7.8600   -0.0000    0.0000 N   0  0  0  0  0  0  0  0  0  0  0  0
    7.5870    1.7552    0.0000 N   0  0  0  0  0  0  0  0  0  0  0  0
    2.0000   -2.0000    0.0000 N   0  0  0  0  0  0  0  0  0  0  0  0
    6.3301    0.5000    0.0000 C   0  0  0  0  0  0  0  0  0  0  0  0
    5.4641    1.0000    0.0000 C   0  0  0  0  0  0  0  0  0  0  0  0
    6.3301   -0.5000    0.0000 C   0  0  0  0  0  0  0  0  0  0  0  0
    4.5981   -0.5000    0.0000 C   0  0  0  0  0  0  0  0  0  0  0  0
    4.5981    0.5000    0.0000 C   0  0  0  0  0  0  0  0  0  0  0  0
    5.4641   -1.0000    0.0000 C   0  0  0  0  0  0  0  0  0  0  0  0
    7.2764    0.8047    0.0000 C   0  0  0  0  0  0  0  0  0  0  0  0
    3.7320   -1.0000    0.0000 C   0  0  0  0  0  0  0  0  0  0  0  0
    4.5981    2.5000    0.0000 C   0  0  0  0  0  0  0  0  0  0  0  0
    6.3301    2.5000    0.0000 C   0  0  0  0  0  0  0  0  0  0  0  0
    2.8660   -0.5000    0.0000 C   0  0  0  0  0  0  0  0  0  0  0  0
    3.7320   -2.0000    0.0000 C   0  0  0  0  0  0  0  0  0  0  0  0
    2.0000   -1.0000    0.0000 C   0  0  0  0  0  0  0  0  0  0  0  0
    2.8660   -2.5000    0.0000 C   0  0  0  0  0  0  0  0  0  0  0  0
    4.0611    0.8100    0.0000 H   0  0  0  0  0  0  0  0  0  0  0  0
    5.4641   -1.6200    0.0000 H   0  0  0  0  0  0  0  0  0  0  0  0
    7.4690   -1.3940    0.0000 H   0  0  0  0  0  0  0  0  0  0  0  0
    4.9081    3.0369    0.0000 H   0  0  0  0  0  0  0  0  0  0  0  0
    4.0611    2.8100    0.0000 H   0  0  0  0  0  0  0  0  0  0  0  0
    4.2881    1.9631    0.0000 H   0  0  0  0  0  0  0  0  0  0  0  0
    6.6401    1.9631    0.0000 H   0  0  0  0  0  0  0  0  0  0  0  0
    6.8671    2.8100    0.0000 H   0  0  0  0  0  0  0  0  0  0  0  0
    6.0201    3.0369    0.0000 H   0  0  0  0  0  0  0  0  0  0  0  0
    2.8660    0.1200    0.0000 H   0  0  0  0  0  0  0  0  0  0  0  0
    4.2690   -2.3100    0.0000 H   0  0  0  0  0  0  0  0  0  0  0  0
    8.1937    1.8831    0.0000 H   0  0  0  0  0  0  0  0  0  0  0  0
    7.1730    2.2167    0.0000 H   0  0  0  0  0  0  0  0  0  0  0  0
    1.4631   -0.6900    0.0000 H   0  0  0  0  0  0  0  0  0  0  0  0
    2.8660   -3.1200    0.0000 H   0  0  0  0  0  0  0  0  0  0  0  0
  1  7  1  0  0  0  0
  1 14  1  0  0  0  0
  1 15  1  0  0  0  0
  2  3  1  0  0  0  0
  2  8  1  0  0  0  0
  2 22  1  0  0  0  0
  3 12  2  0  0  0  0
  4 12  1  0  0  0  0
  4 31  1  0  0  0  0
  4 32  1  0  0  0  0
  5 18  2  0  0  0  0
  5 19  1  0  0  0  0
  6  7  1  0  0  0  0
  6  8  2  0  0  0  0
  6 12  1  0  0  0  0
  7 10  2  0  0  0  0
  8 11  1  0  0  0  0
  9 10  1  0  0  0  0
  9 11  2  0  0  0  0
  9 13  1  0  0  0  0
 10 20  1  0  0  0  0
 11 21  1  0  0  0  0
 13 16  2  0  0  0  0
 13 17  1  0  0  0  0
 14 23  1  0  0  0  0
 14 24  1  0  0  0  0
 14 25  1  0  0  0  0
 15 26  1  0  0  0  0
 15 27  1  0  0  0  0
 15 28  1  0  0  0  0
 16 18  1  0  0  0  0
 16 29  1  0  0  0  0
 17 19  2  0  0  0  0
 17 30  1  0  0  0  0
 18 33  1  0  0  0  0
 19 34  1  0  0  0  0
M  END
> <PUBCHEM_COMPOUND_CID>
49830447

> <PUBCHEM_COMPOUND_CANONICALIZED>
1

> <PUBCHEM_CACTVS_COMPLEXITY>
302

> <PUBCHEM_CACTVS_HBOND_ACCEPTOR>
4

> <PUBCHEM_CACTVS_HBOND_DONOR>
2

> <PUBCHEM_CACTVS_ROTATABLE_BOND>
2

> <PUBCHEM_CACTVS_SUBSKEYS>
AAADccBzgAAAAAAAAAAAAAAAAAAAAWAAAAA8QAAAAAAAAFgB/AAAHAAYAAAADAjBHgQ/8PNrEACiAzZnZACShCIxAiAc+SA4ZJgIIGLA0dGEpAhwmADIyAcQgMAOwAAAQAQCAACAAACACAQAAAAAAAAAAA==

> <PUBCHEM_IUPAC_OPENEYE_NAME>
N4,N4-dimethyl-6-(4-pyridyl)-1H-indazole-3,4-diamine

> <PUBCHEM_IUPAC_CAS_NAME>
N4,N4-dimethyl-6-pyridin-4-yl-1H-indazole-3,4-diamine

> <PUBCHEM_IUPAC_NAME_MARKUP>
4-<I>N</I>,4-<I>N</I>-dimethyl-6-pyridin-4-yl-1<I>H</I>-indazole-3,4-diamine

> <PUBCHEM_IUPAC_NAME>
4-N,4-N-dimethyl-6-pyridin-4-yl-1H-indazole-3,4-diamine

> <PUBCHEM_IUPAC_SYSTEMATIC_NAME>
N4,N4-dimethyl-6-pyridin-4-yl-1H-indazole-3,4-diamine

> <PUBCHEM_IUPAC_TRADITIONAL_NAME>
[3-amino-6-(4-pyridyl)-1H-indazol-4-yl]-dimethyl-amine

> <PUBCHEM_IUPAC_INCHI>
InChI=1S/C14H15N5/c1-19(2)12-8-10(9-3-5-16-6-4-9)7-11-13(12)14(15)18-17-11/h3-8H,1-2H3,(H3,15,17,18)

> <PUBCHEM_IUPAC_INCHIKEY>
QRCXMLQLNQMAFC-UHFFFAOYSA-N

> <PUBCHEM_XLOGP3_AA>
1.9

> <PUBCHEM_EXACT_MASS>
253.13274550

> <PUBCHEM_MOLECULAR_FORMULA>
C14H15N5

> <PUBCHEM_MOLECULAR_WEIGHT>
253.30

> <PUBCHEM_SMILES>
CN(C)C1=CC(=CC2=C1C(=NN2)N)C3=CC=NC=C3

> <PUBCHEM_OPENEYE_CAN_SMILES>
CN(C)C1=CC(=CC2=C1C(=NN2)N)C3=CC=NC=C3

> <PUBCHEM_OPENEYE_ISO_SMILES>
CN(C)C1=CC(=CC2=C1C(=NN2)N)C3=CC=NC=C3

> <PUBCHEM_CACTVS_TPSA>
70.8

> <PUBCHEM_MONOISOTOPIC_WEIGHT>
253.13274550

> <PUBCHEM_TOTAL_CHARGE>
0

> <PUBCHEM_HEAVY_ATOM_COUNT>
19

> <PUBCHEM_ATOM_DEF_STEREO_COUNT>
0

> <PUBCHEM_ATOM_UDEF_STEREO_COUNT>
0

> <PUBCHEM_BOND_DEF_STEREO_COUNT>
0

> <PUBCHEM_BOND_UDEF_STEREO_COUNT>
0

> <PUBCHEM_ISOTOPIC_ATOM_COUNT>
0

> <PUBCHEM_COMPONENT_COUNT>
1

> <PUBCHEM_CACTVS_TAUTO_COUNT>
-1

> <PUBCHEM_COORDINATE_TYPE>
1
5
255

> <PUBCHEM_BONDANNOTATIONS>
13  16  8
13  17  8
16  18  8
17  19  8
2  3  8
2  8  8
3  12  8
5  18  8
5  19  8
6  12  8
6  7  8
6  8  8
7  10  8
8  11  8
9  10  8
9  11  8

$$$$
