25134688
  -OEChem-03202502572D

 42 46  0     0  0  0  0  0  0999 V2000
    3.9694   -2.1153    0.0000 F   0  0  0  0  0  0  0  0  0  0  0  0
    7.3578   -2.8355    0.0000 F   0  0  0  0  0  0  0  0  0  0  0  0
    2.0000    0.9058    0.0000 O   0  0  0  0  0  0  0  0  0  0  0  0
    7.0878    1.3355    0.0000 N   0  0  0  0  0  0  0  0  0  0  0  0
    3.5762    1.2423    0.0000 N   0  0  0  0  0  0  0  0  0  0  0  0
    6.2218    0.8355    0.0000 N   0  0  0  0  0  0  0  0  0  0  0  0
    3.4071   -0.3669    0.0000 N   0  0  0  0  0  0  0  0  0  0  0  0
    8.6177    1.8355    0.0000 N   0  0  0  0  0  0  0  0  0  0  0  0
    8.0341    2.6402    0.0000 N   0  0  0  0  0  0  0  0  0  0  0  0
    4.4898    0.8355    0.0000 C   0  0  0  0  0  0  0  0  0  0  0  0
    8.3447    0.0803    0.0000 C   0  0  0  0  0  0  0  0  0  0  0  0
    8.0341    1.0308    0.0000 C   0  0  0  0  0  0  0  0  0  0  0  0
    5.3558    1.3355    0.0000 C   0  0  0  0  0  0  0  0  0  0  0  0
    4.3852   -0.1590    0.0000 C   0  0  0  0  0  0  0  0  0  0  0  0
    7.0878    2.3355    0.0000 C   0  0  0  0  0  0  0  0  0  0  0  0
    2.9071    0.4991    0.0000 C   0  0  0  0  0  0  0  0  0  0  0  0
    5.3558    2.3355    0.0000 C   0  0  0  0  0  0  0  0  0  0  0  0
    9.3232   -0.1259    0.0000 C   0  0  0  0  0  0  0  0  0  0  0  0
    7.6769   -0.6640    0.0000 C   0  0  0  0  0  0  0  0  0  0  0  0
    5.1284   -0.8281    0.0000 C   0  0  0  0  0  0  0  0  0  0  0  0
    6.2218    2.8355    0.0000 C   0  0  0  0  0  0  0  0  0  0  0  0
    3.0769    2.1019    0.0000 C   0  0  0  0  0  0  0  0  0  0  0  0
    2.1048    1.8943    0.0000 C   0  0  0  0  0  0  0  0  0  0  0  0
    4.9205   -1.8063    0.0000 C   0  0  0  0  0  0  0  0  0  0  0  0
    6.0794   -0.5191    0.0000 C   0  0  0  0  0  0  0  0  0  0  0  0
    5.6636   -2.4754    0.0000 C   0  0  0  0  0  0  0  0  0  0  0  0
    6.8226   -1.1882    0.0000 C   0  0  0  0  0  0  0  0  0  0  0  0
    6.6147   -2.1664    0.0000 C   0  0  0  0  0  0  0  0  0  0  0  0
    7.7380    0.2081    0.0000 H   0  0  0  0  0  0  0  0  0  0  0  0
    4.8188    2.6455    0.0000 H   0  0  0  0  0  0  0  0  0  0  0  0
    9.1954   -0.7326    0.0000 H   0  0  0  0  0  0  0  0  0  0  0  0
    9.9299   -0.2538    0.0000 H   0  0  0  0  0  0  0  0  0  0  0  0
    9.4511    0.4807    0.0000 H   0  0  0  0  0  0  0  0  0  0  0  0
    7.2154   -0.2500    0.0000 H   0  0  0  0  0  0  0  0  0  0  0  0
    7.2628   -1.1255    0.0000 H   0  0  0  0  0  0  0  0  0  0  0  0
    8.1383   -1.0781    0.0000 H   0  0  0  0  0  0  0  0  0  0  0  0
    6.2218    3.4555    0.0000 H   0  0  0  0  0  0  0  0  0  0  0  0
    3.3281    2.6687    0.0000 H   0  0  0  0  0  0  0  0  0  0  0  0
    1.6440    2.3092    0.0000 H   0  0  0  0  0  0  0  0  0  0  0  0
    6.2083    0.0873    0.0000 H   0  0  0  0  0  0  0  0  0  0  0  0
    5.5347   -3.0819    0.0000 H   0  0  0  0  0  0  0  0  0  0  0  0
    7.4122   -0.9967    0.0000 H   0  0  0  0  0  0  0  0  0  0  0  0
  1 24  1  0  0  0  0
  2 28  1  0  0  0  0
  3 16  1  0  0  0  0
  3 23  1  0  0  0  0
  4  6  1  0  0  0  0
  4 12  1  0  0  0  0
  4 15  1  0  0  0  0
  5 10  1  0  0  0  0
  5 16  1  0  0  0  0
  5 22  1  0  0  0  0
  6 13  2  0  0  0  0
  7 14  1  0  0  0  0
  7 16  2  0  0  0  0
  8  9  1  0  0  0  0
  8 12  2  0  0  0  0
  9 15  2  0  0  0  0
 10 13  1  0  0  0  0
 10 14  2  0  0  0  0
 11 12  1  0  0  0  0
 11 18  1  0  0  0  0
 11 19  1  0  0  0  0
 11 29  1  0  0  0  0
 13 17  1  0  0  0  0
 14 20  1  0  0  0  0
 15 21  1  0  0  0  0
 17 21  2  0  0  0  0
 17 30  1  0  0  0  0
 18 31  1  0  0  0  0
 18 32  1  0  0  0  0
 18 33  1  0  0  0  0
 19 34  1  0  0  0  0
 19 35  1  0  0  0  0
 19 36  1  0  0  0  0
 20 24  2  0  0  0  0
 20 25  1  0  0  0  0
 21 37  1  0  0  0  0
 22 23  2  0  0  0  0
 22 38  1  0  0  0  0
 23 39  1  0  0  0  0
 24 26  1  0  0  0  0
 25 27  2  0  0  0  0
 25 40  1  0  0  0  0
 26 28  2  0  0  0  0
 26 41  1  0  0  0  0
 27 28  1  0  0  0  0
 27 42  1  0  0  0  0
M  END
> <PUBCHEM_COMPOUND_CID>
25134688

> <PUBCHEM_COMPOUND_CANONICALIZED>
1

> <PUBCHEM_CACTVS_COMPLEXITY>
571

> <PUBCHEM_CACTVS_HBOND_ACCEPTOR>
7

> <PUBCHEM_CACTVS_HBOND_DONOR>
0

> <PUBCHEM_CACTVS_ROTATABLE_BOND>
3

> <PUBCHEM_CACTVS_SUBSKEYS>
AAADccB7oYAAAAAAAAAAAAAAAAAAAWLFgAA8QAAAAAAWAFgB/gAAHwAIAAAADQjhnw4/tJ8MHECqAz539ASSjC87UqAd2CC7dJiOaOLA2bGdoAhojgLYyCcQgMAOAAAAAAAAAAAAAAAAAAAAAAAAAAAAAA==

> <PUBCHEM_IUPAC_OPENEYE_NAME>
6-(2,4-difluorophenyl)-5-(3-isopropyl-[1,2,4]triazolo[4,3-b]pyridazin-6-yl)imidazo[2,1-b]oxazole

> <PUBCHEM_IUPAC_CAS_NAME>
6-(2,4-difluorophenyl)-5-(3-propan-2-yl-[1,2,4]triazolo[4,3-b]pyridazin-6-yl)imidazo[2,1-b]oxazole

> <PUBCHEM_IUPAC_NAME_MARKUP>
6-(2,4-difluorophenyl)-5-(3-propan-2-yl-[1,2,4]triazolo[4,3-b]pyridazin-6-yl)imidazo[2,1-b][1,3]oxazole

> <PUBCHEM_IUPAC_NAME>
6-(2,4-difluorophenyl)-5-(3-propan-2-yl-[1,2,4]triazolo[4,3-b]pyridazin-6-yl)imidazo[2,1-b][1,3]oxazole

> <PUBCHEM_IUPAC_SYSTEMATIC_NAME>
6-[2,4-bis(fluoranyl)phenyl]-5-(3-propan-2-yl-[1,2,4]triazolo[4,3-b]pyridazin-6-yl)imidazo[2,1-b][1,3]oxazole

> <PUBCHEM_IUPAC_TRADITIONAL_NAME>
6-(2,4-difluorophenyl)-5-(3-isopropyl-[1,2,4]triazolo[4,3-b]pyridazin-6-yl)imidazo[2,1-b]oxazole

> <PUBCHEM_IUPAC_INCHI>
InChI=1S/C19H14F2N6O/c1-10(2)18-24-23-15-6-5-14(25-27(15)18)17-16(22-19-26(17)7-8-28-19)12-4-3-11(20)9-13(12)21/h3-10H,1-2H3

> <PUBCHEM_IUPAC_INCHIKEY>
AKOITYPGORWENQ-UHFFFAOYSA-N

> <PUBCHEM_XLOGP3_AA>
3.8

> <PUBCHEM_EXACT_MASS>
380.11971542

> <PUBCHEM_MOLECULAR_FORMULA>
C19H14F2N6O

> <PUBCHEM_MOLECULAR_WEIGHT>
380.4

> <PUBCHEM_SMILES>
CC(C)C1=NN=C2N1N=C(C=C2)C3=C(N=C4N3C=CO4)C5=C(C=C(C=C5)F)F

> <PUBCHEM_OPENEYE_CAN_SMILES>
CC(C)C1=NN=C2N1N=C(C=C2)C3=C(N=C4N3C=CO4)C5=C(C=C(C=C5)F)F

> <PUBCHEM_OPENEYE_ISO_SMILES>
CC(C)C1=NN=C2N1N=C(C=C2)C3=C(N=C4N3C=CO4)C5=C(C=C(C=C5)F)F

> <PUBCHEM_CACTVS_TPSA>
73.5

> <PUBCHEM_MONOISOTOPIC_WEIGHT>
380.11971542

> <PUBCHEM_TOTAL_CHARGE>
0

> <PUBCHEM_HEAVY_ATOM_COUNT>
28

> <PUBCHEM_ATOM_DEF_STEREO_COUNT>
0

> <PUBCHEM_ATOM_UDEF_STEREO_COUNT>
0

> <PUBCHEM_BOND_DEF_STEREO_COUNT>
0

> <PUBCHEM_BOND_UDEF_STEREO_COUNT>
0

> <PUBCHEM_ISOTOPIC_ATOM_COUNT>
0

> <PUBCHEM_COMPONENT_COUNT>
1

> <PUBCHEM_CACTVS_TAUTO_COUNT>
-1

> <PUBCHEM_COORDINATE_TYPE>
1
5
255

> <PUBCHEM_BONDANNOTATIONS>
10  14  8
13  17  8
15  21  8
17  21  8
20  24  8
20  25  8
22  23  8
24  26  8
25  27  8
26  28  8
27  28  8
3  16  8
3  23  8
4  12  8
4  15  8
4  6  8
5  10  8
5  16  8
5  22  8
6  13  8
7  14  8
7  16  8
8  12  8
8  9  8
9  15  8

$$$$
