25167277
  -OEChem-03202500282D

 41 44  0     0  0  0  0  0  0999 V2000
    3.7320   -1.2709    0.0000 N   0  0  0  0  0  0  0  0  0  0  0  0
    4.9889   -0.0157    0.0000 N   0  0  0  0  0  0  0  0  0  0  0  0
    4.6783   -2.5757    0.0000 N   0  0  0  0  0  0  0  0  0  0  0  0
    2.8660   -2.7709    0.0000 N   0  0  0  0  0  0  0  0  0  0  0  0
    9.2337   -1.9801    0.0000 N   0  0  0  0  0  0  0  0  0  0  0  0
    9.3368   -2.9689    0.0000 N   0  0  0  0  0  0  0  0  0  0  0  0
    4.6783   -0.9662    0.0000 C   0  0  0  0  0  0  0  0  0  0  0  0
    5.2619   -1.7709    0.0000 C   0  0  0  0  0  0  0  0  0  0  0  0
    4.3211    0.7286    0.0000 C   0  0  0  0  0  0  0  0  0  0  0  0
    4.6318    1.6792    0.0000 C   0  0  0  0  0  0  0  0  0  0  0  0
    6.2619   -1.7709    0.0000 C   0  0  0  0  0  0  0  0  0  0  0  0
    3.9639    2.4234    0.0000 C   0  0  0  0  0  0  0  0  0  0  0  0
    3.7320   -2.2709    0.0000 C   0  0  0  0  0  0  0  0  0  0  0  0
    6.7619   -2.6370    0.0000 C   0  0  0  0  0  0  0  0  0  0  0  0
    7.7619   -2.6370    0.0000 C   0  0  0  0  0  0  0  0  0  0  0  0
    6.7619   -0.9049    0.0000 C   0  0  0  0  0  0  0  0  0  0  0  0
    8.2619   -1.7709    0.0000 C   0  0  0  0  0  0  0  0  0  0  0  0
    2.8660   -0.7709    0.0000 C   0  0  0  0  0  0  0  0  0  0  0  0
    7.7619   -0.9049    0.0000 C   0  0  0  0  0  0  0  0  0  0  0  0
    4.2746    3.3740    0.0000 C   0  0  0  0  0  0  0  0  0  0  0  0
    2.0000   -1.2709    0.0000 C   0  0  0  0  0  0  0  0  0  0  0  0
    8.4290   -3.3740    0.0000 C   0  0  0  0  0  0  0  0  0  0  0  0
    2.0000   -2.2709    0.0000 C   0  0  0  0  0  0  0  0  0  0  0  0
    3.7742    1.0206    0.0000 H   0  0  0  0  0  0  0  0  0  0  0  0
    3.9385    0.2407    0.0000 H   0  0  0  0  0  0  0  0  0  0  0  0
    5.1787    1.3871    0.0000 H   0  0  0  0  0  0  0  0  0  0  0  0
    5.0143    2.1670    0.0000 H   0  0  0  0  0  0  0  0  0  0  0  0
    5.5956    0.1122    0.0000 H   0  0  0  0  0  0  0  0  0  0  0  0
    3.4170    2.7155    0.0000 H   0  0  0  0  0  0  0  0  0  0  0  0
    3.5814    1.9355    0.0000 H   0  0  0  0  0  0  0  0  0  0  0  0
    6.4519   -3.1739    0.0000 H   0  0  0  0  0  0  0  0  0  0  0  0
    6.4519   -0.3680    0.0000 H   0  0  0  0  0  0  0  0  0  0  0  0
    2.8660   -0.1509    0.0000 H   0  0  0  0  0  0  0  0  0  0  0  0
    8.0719   -0.3680    0.0000 H   0  0  0  0  0  0  0  0  0  0  0  0
    4.8639    3.1814    0.0000 H   0  0  0  0  0  0  0  0  0  0  0  0
    4.4672    3.9633    0.0000 H   0  0  0  0  0  0  0  0  0  0  0  0
    3.6852    3.5666    0.0000 H   0  0  0  0  0  0  0  0  0  0  0  0
    1.4631   -0.9609    0.0000 H   0  0  0  0  0  0  0  0  0  0  0  0
    8.3011   -3.9806    0.0000 H   0  0  0  0  0  0  0  0  0  0  0  0
    9.6952   -1.5661    0.0000 H   0  0  0  0  0  0  0  0  0  0  0  0
    1.4631   -2.5809    0.0000 H   0  0  0  0  0  0  0  0  0  0  0  0
  1  7  1  0  0  0  0
  1 13  1  0  0  0  0
  1 18  1  0  0  0  0
  2  7  1  0  0  0  0
  2  9  1  0  0  0  0
  2 28  1  0  0  0  0
  3  8  1  0  0  0  0
  3 13  2  0  0  0  0
  4 13  1  0  0  0  0
  4 23  2  0  0  0  0
  5  6  1  0  0  0  0
  5 17  1  0  0  0  0
  5 40  1  0  0  0  0
  6 22  2  0  0  0  0
  7  8  2  0  0  0  0
  8 11  1  0  0  0  0
  9 10  1  0  0  0  0
  9 24  1  0  0  0  0
  9 25  1  0  0  0  0
 10 12  1  0  0  0  0
 10 26  1  0  0  0  0
 10 27  1  0  0  0  0
 11 14  2  0  0  0  0
 11 16  1  0  0  0  0
 12 20  1  0  0  0  0
 12 29  1  0  0  0  0
 12 30  1  0  0  0  0
 14 15  1  0  0  0  0
 14 31  1  0  0  0  0
 15 17  2  0  0  0  0
 15 22  1  0  0  0  0
 16 19  2  0  0  0  0
 16 32  1  0  0  0  0
 17 19  1  0  0  0  0
 18 21  2  0  0  0  0
 18 33  1  0  0  0  0
 19 34  1  0  0  0  0
 20 35  1  0  0  0  0
 20 36  1  0  0  0  0
 20 37  1  0  0  0  0
 21 23  1  0  0  0  0
 21 38  1  0  0  0  0
 22 39  1  0  0  0  0
 23 41  1  0  0  0  0
M  END
> <PUBCHEM_COMPOUND_CID>
25167277

> <PUBCHEM_COMPOUND_CANONICALIZED>
1

> <PUBCHEM_CACTVS_COMPLEXITY>
391

> <PUBCHEM_CACTVS_HBOND_ACCEPTOR>
4

> <PUBCHEM_CACTVS_HBOND_DONOR>
2

> <PUBCHEM_CACTVS_ROTATABLE_BOND>
5

> <PUBCHEM_CACTVS_SUBSKEYS>
AAADceB7gAAAAAAAAAAAAAAAAAAAAWLAAAA8QAAAAAAAAFgB/gAAHAAYAAAADAjBHgQ/8PfvGACiAzZnZACShC0xkqAZ+aA4dJiIaOLA2dGUpAhomALIyCcQgMAOCAACAAACAAAQAAQAAAQAAAAAAAAAAA==

> <PUBCHEM_IUPAC_OPENEYE_NAME>
N-butyl-2-(1H-indazol-5-yl)imidazo[1,2-a]pyrimidin-3-amine

> <PUBCHEM_IUPAC_CAS_NAME>
N-butyl-2-(1H-indazol-5-yl)-3-imidazo[1,2-a]pyrimidinamine

> <PUBCHEM_IUPAC_NAME_MARKUP>
<I>N</I>-butyl-2-(1<I>H</I>-indazol-5-yl)imidazo[1,2-a]pyrimidin-3-amine

> <PUBCHEM_IUPAC_NAME>
N-butyl-2-(1H-indazol-5-yl)imidazo[1,2-a]pyrimidin-3-amine

> <PUBCHEM_IUPAC_SYSTEMATIC_NAME>
N-butyl-2-(1H-indazol-5-yl)imidazo[1,2-a]pyrimidin-3-amine

> <PUBCHEM_IUPAC_TRADITIONAL_NAME>
butyl-[2-(1H-indazol-5-yl)imidazo[1,2-a]pyrimidin-3-yl]amine

> <PUBCHEM_IUPAC_INCHI>
InChI=1S/C17H18N6/c1-2-3-7-18-16-15(21-17-19-8-4-9-23(16)17)12-5-6-14-13(10-12)11-20-22-14/h4-6,8-11,18H,2-3,7H2,1H3,(H,20,22)

> <PUBCHEM_IUPAC_INCHIKEY>
ZAOAKWGRHJIYTD-UHFFFAOYSA-N

> <PUBCHEM_XLOGP3_AA>
4

> <PUBCHEM_EXACT_MASS>
306.15929460

> <PUBCHEM_MOLECULAR_FORMULA>
C17H18N6

> <PUBCHEM_MOLECULAR_WEIGHT>
306.4

> <PUBCHEM_SMILES>
CCCCNC1=C(N=C2N1C=CC=N2)C3=CC4=C(C=C3)NN=C4

> <PUBCHEM_OPENEYE_CAN_SMILES>
CCCCNC1=C(N=C2N1C=CC=N2)C3=CC4=C(C=C3)NN=C4

> <PUBCHEM_OPENEYE_ISO_SMILES>
CCCCNC1=C(N=C2N1C=CC=N2)C3=CC4=C(C=C3)NN=C4

> <PUBCHEM_CACTVS_TPSA>
70.9

> <PUBCHEM_MONOISOTOPIC_WEIGHT>
306.15929460

> <PUBCHEM_TOTAL_CHARGE>
0

> <PUBCHEM_HEAVY_ATOM_COUNT>
23

> <PUBCHEM_ATOM_DEF_STEREO_COUNT>
0

> <PUBCHEM_ATOM_UDEF_STEREO_COUNT>
0

> <PUBCHEM_BOND_DEF_STEREO_COUNT>
0

> <PUBCHEM_BOND_UDEF_STEREO_COUNT>
0

> <PUBCHEM_ISOTOPIC_ATOM_COUNT>
0

> <PUBCHEM_COMPONENT_COUNT>
1

> <PUBCHEM_CACTVS_TAUTO_COUNT>
-1

> <PUBCHEM_COORDINATE_TYPE>
1
5
255

> <PUBCHEM_BONDANNOTATIONS>
1  13  8
1  18  8
1  7  8
11  14  8
11  16  8
14  15  8
15  17  8
15  22  8
16  19  8
17  19  8
18  21  8
21  23  8
3  13  8
3  8  8
4  13  8
4  23  8
5  17  8
5  6  8
6  22  8
7  8  8

$$$$
