22607336
  -OEChem-03202503482D

 52 55  0     1  0  0  0  0  0999 V2000
    7.1962    0.0600    0.0000 O   0  0  0  0  0  0  0  0  0  0  0  0
    6.3301   -1.4400    0.0000 N   0  0  0  0  0  0  0  0  0  0  0  0
   13.9221   -0.4400    0.0000 N   0  0  0  0  0  0  0  0  0  0  0  0
   13.3385   -1.2447    0.0000 N   0  0  0  0  0  0  0  0  0  0  0  0
    8.9282    2.0600    0.0000 N   0  0  0  0  0  0  0  0  0  0  0  0
    5.4641    0.0600    0.0000 C   0  0  3  0  0  0  0  0  0  0  0  0
    4.5981    0.5600    0.0000 C   0  0  0  0  0  0  0  0  0  0  0  0
    6.3301    0.5600    0.0000 C   0  0  0  0  0  0  0  0  0  0  0  0
    5.4641   -0.9400    0.0000 C   0  0  0  0  0  0  0  0  0  0  0  0
    3.7320    0.0600    0.0000 C   0  0  0  0  0  0  0  0  0  0  0  0
    3.7320   -0.9400    0.0000 C   0  0  0  0  0  0  0  0  0  0  0  0
    2.8660    0.5600    0.0000 C   0  0  0  0  0  0  0  0  0  0  0  0
    8.0622    0.5600    0.0000 C   0  0  0  0  0  0  0  0  0  0  0  0
   12.3923    0.0600    0.0000 C   0  0  0  0  0  0  0  0  0  0  0  0
   10.6603    0.0600    0.0000 C   0  0  0  0  0  0  0  0  0  0  0  0
    9.7942    0.5600    0.0000 C   0  0  0  0  0  0  0  0  0  0  0  0
   11.5263    0.5600    0.0000 C   0  0  0  0  0  0  0  0  0  0  0  0
   12.3923   -0.9400    0.0000 C   0  0  0  0  0  0  0  0  0  0  0  0
    8.9282    0.0600    0.0000 C   0  0  0  0  0  0  0  0  0  0  0  0
   13.3385    0.3647    0.0000 C   0  0  0  0  0  0  0  0  0  0  0  0
   10.6603   -0.9400    0.0000 C   0  0  0  0  0  0  0  0  0  0  0  0
    2.8660   -1.4400    0.0000 C   0  0  0  0  0  0  0  0  0  0  0  0
    2.0000    0.0600    0.0000 C   0  0  0  0  0  0  0  0  0  0  0  0
   11.5263   -1.4400    0.0000 C   0  0  0  0  0  0  0  0  0  0  0  0
    8.0622    1.5600    0.0000 C   0  0  0  0  0  0  0  0  0  0  0  0
    2.0000   -0.9400    0.0000 C   0  0  0  0  0  0  0  0  0  0  0  0
    9.7942    1.5600    0.0000 C   0  0  0  0  0  0  0  0  0  0  0  0
   13.6492    1.3152    0.0000 C   0  0  0  0  0  0  0  0  0  0  0  0
    6.0010   -0.2500    0.0000 H   0  0  0  0  0  0  0  0  0  0  0  0
    4.9966    1.0350    0.0000 H   0  0  0  0  0  0  0  0  0  0  0  0
    4.1996    1.0350    0.0000 H   0  0  0  0  0  0  0  0  0  0  0  0
    6.7287    1.0350    0.0000 H   0  0  0  0  0  0  0  0  0  0  0  0
    5.9316    1.0350    0.0000 H   0  0  0  0  0  0  0  0  0  0  0  0
    4.8535   -0.8323    0.0000 H   0  0  0  0  0  0  0  0  0  0  0  0
    5.2520   -1.5226    0.0000 H   0  0  0  0  0  0  0  0  0  0  0  0
    6.3301   -2.0600    0.0000 H   0  0  0  0  0  0  0  0  0  0  0  0
    6.8671   -1.1300    0.0000 H   0  0  0  0  0  0  0  0  0  0  0  0
    4.2690   -1.2500    0.0000 H   0  0  0  0  0  0  0  0  0  0  0  0
    2.8660    1.1800    0.0000 H   0  0  0  0  0  0  0  0  0  0  0  0
   11.5263    1.1800    0.0000 H   0  0  0  0  0  0  0  0  0  0  0  0
    8.9282   -0.5600    0.0000 H   0  0  0  0  0  0  0  0  0  0  0  0
   10.1233   -1.2500    0.0000 H   0  0  0  0  0  0  0  0  0  0  0  0
   11.5263   -2.0600    0.0000 H   0  0  0  0  0  0  0  0  0  0  0  0
    2.8660   -2.0600    0.0000 H   0  0  0  0  0  0  0  0  0  0  0  0
    1.4631    0.3700    0.0000 H   0  0  0  0  0  0  0  0  0  0  0  0
    7.5252    1.8700    0.0000 H   0  0  0  0  0  0  0  0  0  0  0  0
    1.4631   -1.2500    0.0000 H   0  0  0  0  0  0  0  0  0  0  0  0
   10.3312    1.8700    0.0000 H   0  0  0  0  0  0  0  0  0  0  0  0
   14.5421   -0.4400    0.0000 H   0  0  0  0  0  0  0  0  0  0  0  0
   14.2385    1.1226    0.0000 H   0  0  0  0  0  0  0  0  0  0  0  0
   13.8418    1.9046    0.0000 H   0  0  0  0  0  0  0  0  0  0  0  0
   13.0599    1.5079    0.0000 H   0  0  0  0  0  0  0  0  0  0  0  0
  1  8  1  0  0  0  0
  1 13  1  0  0  0  0
  2  9  1  0  0  0  0
  2 36  1  0  0  0  0
  2 37  1  0  0  0  0
  3  4  1  0  0  0  0
  3 20  1  0  0  0  0
  3 49  1  0  0  0  0
  4 18  2  0  0  0  0
  5 25  1  0  0  0  0
  5 27  2  0  0  0  0
  6  7  1  0  0  0  0
  6  8  1  0  0  0  0
  6  9  1  0  0  0  0
  6 29  1  0  0  0  0
  7 10  1  0  0  0  0
  7 30  1  0  0  0  0
  7 31  1  0  0  0  0
  8 32  1  0  0  0  0
  8 33  1  0  0  0  0
  9 34  1  0  0  0  0
  9 35  1  0  0  0  0
 10 11  2  0  0  0  0
 10 12  1  0  0  0  0
 11 22  1  0  0  0  0
 11 38  1  0  0  0  0
 12 23  2  0  0  0  0
 12 39  1  0  0  0  0
 13 19  1  0  0  0  0
 13 25  2  0  0  0  0
 14 17  1  0  0  0  0
 14 18  1  0  0  0  0
 14 20  2  0  0  0  0
 15 16  1  0  0  0  0
 15 17  2  0  0  0  0
 15 21  1  0  0  0  0
 16 19  2  0  0  0  0
 16 27  1  0  0  0  0
 17 40  1  0  0  0  0
 18 24  1  0  0  0  0
 19 41  1  0  0  0  0
 20 28  1  0  0  0  0
 21 24  2  0  0  0  0
 21 42  1  0  0  0  0
 22 26  2  0  0  0  0
 22 44  1  0  0  0  0
 23 26  1  0  0  0  0
 23 45  1  0  0  0  0
 24 43  1  0  0  0  0
 25 46  1  0  0  0  0
 26 47  1  0  0  0  0
 27 48  1  0  0  0  0
 28 50  1  0  0  0  0
 28 51  1  0  0  0  0
 28 52  1  0  0  0  0
M  END
> <PUBCHEM_COMPOUND_CID>
22607336

> <PUBCHEM_COMPOUND_CANONICALIZED>
1

> <PUBCHEM_CACTVS_COMPLEXITY>
470

> <PUBCHEM_CACTVS_HBOND_ACCEPTOR>
4

> <PUBCHEM_CACTVS_HBOND_DONOR>
2

> <PUBCHEM_CACTVS_ROTATABLE_BOND>
7

> <PUBCHEM_CACTVS_SUBSKEYS>
AAADceB7oAAAAAAAAAAAAAAAAAAAAWAAAAA8YIAAAAAAAFgB/AAAHgAYAAAADQzhngY+xvJrFACiAzRnRASSjCAxYiAY+aA/bJgOJuLE8duHvCjm2BHY6AewwOAOiAACAAACAAAQAAQAAAQAAAAAAAAAAA==

> <PUBCHEM_IUPAC_OPENEYE_NAME>
2-benzyl-3-[[5-(3-methyl-2H-indazol-5-yl)-3-pyridyl]oxy]propan-1-amine

> <PUBCHEM_IUPAC_CAS_NAME>
2-[[5-(3-methyl-2H-indazol-5-yl)-3-pyridinyl]oxymethyl]-3-phenyl-1-propanamine

> <PUBCHEM_IUPAC_NAME_MARKUP>
2-benzyl-3-[5-(3-methyl-2<I>H</I>-indazol-5-yl)pyridin-3-yl]oxypropan-1-amine

> <PUBCHEM_IUPAC_NAME>
2-benzyl-3-[5-(3-methyl-2H-indazol-5-yl)pyridin-3-yl]oxypropan-1-amine

> <PUBCHEM_IUPAC_SYSTEMATIC_NAME>
2-[[5-(3-methyl-2H-indazol-5-yl)pyridin-3-yl]oxymethyl]-3-phenyl-propan-1-amine

> <PUBCHEM_IUPAC_TRADITIONAL_NAME>
[2-benzyl-3-[[5-(3-methyl-2H-indazol-5-yl)-3-pyridyl]oxy]propyl]amine

> <PUBCHEM_IUPAC_INCHI>
InChI=1S/C23H24N4O/c1-16-22-11-19(7-8-23(22)27-26-16)20-10-21(14-25-13-20)28-15-18(12-24)9-17-5-3-2-4-6-17/h2-8,10-11,13-14,18H,9,12,15,24H2,1H3,(H,26,27)

> <PUBCHEM_IUPAC_INCHIKEY>
GHPFQRTVUDXWCC-UHFFFAOYSA-N

> <PUBCHEM_XLOGP3_AA>
3.8

> <PUBCHEM_EXACT_MASS>
372.19501140

> <PUBCHEM_MOLECULAR_FORMULA>
C23H24N4O

> <PUBCHEM_MOLECULAR_WEIGHT>
372.5

> <PUBCHEM_SMILES>
CC1=C2C=C(C=CC2=NN1)C3=CC(=CN=C3)OCC(CC4=CC=CC=C4)CN

> <PUBCHEM_OPENEYE_CAN_SMILES>
CC1=C2C=C(C=CC2=NN1)C3=CC(=CN=C3)OCC(CC4=CC=CC=C4)CN

> <PUBCHEM_OPENEYE_ISO_SMILES>
CC1=C2C=C(C=CC2=NN1)C3=CC(=CN=C3)OCC(CC4=CC=CC=C4)CN

> <PUBCHEM_CACTVS_TPSA>
76.8

> <PUBCHEM_MONOISOTOPIC_WEIGHT>
372.19501140

> <PUBCHEM_TOTAL_CHARGE>
0

> <PUBCHEM_HEAVY_ATOM_COUNT>
28

> <PUBCHEM_ATOM_DEF_STEREO_COUNT>
0

> <PUBCHEM_ATOM_UDEF_STEREO_COUNT>
1

> <PUBCHEM_BOND_DEF_STEREO_COUNT>
0

> <PUBCHEM_BOND_UDEF_STEREO_COUNT>
0

> <PUBCHEM_ISOTOPIC_ATOM_COUNT>
0

> <PUBCHEM_COMPONENT_COUNT>
1

> <PUBCHEM_CACTVS_TAUTO_COUNT>
-1

> <PUBCHEM_COORDINATE_TYPE>
1
5
255

> <PUBCHEM_BONDANNOTATIONS>
10  11  8
10  12  8
11  22  8
12  23  8
13  19  8
13  25  8
14  17  8
14  18  8
14  20  8
15  17  8
15  21  8
16  19  8
16  27  8
18  24  8
21  24  8
22  26  8
23  26  8
3  20  8
3  4  8
4  18  8
5  25  8
5  27  8
6  7  3

$$$$
