136027080
  -OEChem-03202503522D

 39 42  0     0  0  0  0  0  0999 V2000
    2.0000   -2.3275    0.0000 O   0  0  0  0  0  0  0  0  0  0  0  0
    6.1279   -1.3275    0.0000 N   0  0  0  0  0  0  0  0  0  0  0  0
    3.7320   -2.3275    0.0000 N   0  0  0  0  0  0  0  0  0  0  0  0
    5.5443   -2.1322    0.0000 N   0  0  0  0  0  0  0  0  0  0  0  0
   12.0367    2.6156    0.0000 N   0  0  0  0  0  0  0  0  0  0  0  0
    4.5981   -0.8275    0.0000 C   0  0  0  0  0  0  0  0  0  0  0  0
    5.5443   -0.5227    0.0000 C   0  0  0  0  0  0  0  0  0  0  0  0
    5.8550    0.4278    0.0000 C   0  0  0  0  0  0  0  0  0  0  0  0
    4.5981   -1.8275    0.0000 C   0  0  0  0  0  0  0  0  0  0  0  0
    3.7320   -0.3275    0.0000 C   0  0  0  0  0  0  0  0  0  0  0  0
    6.8335    0.6340    0.0000 C   0  0  0  0  0  0  0  0  0  0  0  0
    7.1441    1.5845    0.0000 C   0  0  0  0  0  0  0  0  0  0  0  0
    2.8660   -0.8275    0.0000 C   0  0  0  0  0  0  0  0  0  0  0  0
    5.1871    1.1721    0.0000 C   0  0  0  0  0  0  0  0  0  0  0  0
    3.7320    0.6725    0.0000 C   0  0  0  0  0  0  0  0  0  0  0  0
    2.8660   -1.8275    0.0000 C   0  0  0  0  0  0  0  0  0  0  0  0
    8.1226    1.7907    0.0000 C   0  0  0  0  0  0  0  0  0  0  0  0
    6.4763    2.3288    0.0000 C   0  0  0  0  0  0  0  0  0  0  0  0
    5.4978    2.1226    0.0000 C   0  0  0  0  0  0  0  0  0  0  0  0
    8.7905    1.0464    0.0000 C   0  0  0  0  0  0  0  0  0  0  0  0
    8.4333    2.7413    0.0000 C   0  0  0  0  0  0  0  0  0  0  0  0
    9.7690    1.2526    0.0000 C   0  0  0  0  0  0  0  0  0  0  0  0
    9.4118    2.9475    0.0000 C   0  0  0  0  0  0  0  0  0  0  0  0
   10.0796    2.2032    0.0000 C   0  0  0  0  0  0  0  0  0  0  0  0
   11.0582    2.4094    0.0000 C   0  0  0  0  0  0  0  0  0  0  0  0
    6.7479   -1.3275    0.0000 H   0  0  0  0  0  0  0  0  0  0  0  0
    7.2475    0.1725    0.0000 H   0  0  0  0  0  0  0  0  0  0  0  0
    3.7320   -2.9475    0.0000 H   0  0  0  0  0  0  0  0  0  0  0  0
    2.3291   -0.5175    0.0000 H   0  0  0  0  0  0  0  0  0  0  0  0
    4.5804    1.0442    0.0000 H   0  0  0  0  0  0  0  0  0  0  0  0
    4.3520    0.6725    0.0000 H   0  0  0  0  0  0  0  0  0  0  0  0
    3.7320    1.2925    0.0000 H   0  0  0  0  0  0  0  0  0  0  0  0
    3.1120    0.6725    0.0000 H   0  0  0  0  0  0  0  0  0  0  0  0
    6.6689    2.9181    0.0000 H   0  0  0  0  0  0  0  0  0  0  0  0
    5.0837    2.5841    0.0000 H   0  0  0  0  0  0  0  0  0  0  0  0
    8.5979    0.4571    0.0000 H   0  0  0  0  0  0  0  0  0  0  0  0
    8.0192    3.2027    0.0000 H   0  0  0  0  0  0  0  0  0  0  0  0
   10.1830    0.7912    0.0000 H   0  0  0  0  0  0  0  0  0  0  0  0
    9.6044    3.5368    0.0000 H   0  0  0  0  0  0  0  0  0  0  0  0
  1 16  2  0  0  0  0
  2  4  1  0  0  0  0
  2  7  1  0  0  0  0
  2 26  1  0  0  0  0
  3  9  1  0  0  0  0
  3 16  1  0  0  0  0
  3 28  1  0  0  0  0
  4  9  2  0  0  0  0
  5 25  3  0  0  0  0
  6  7  2  0  0  0  0
  6  9  1  0  0  0  0
  6 10  1  0  0  0  0
  7  8  1  0  0  0  0
  8 11  1  0  0  0  0
  8 14  2  0  0  0  0
 10 13  2  0  0  0  0
 10 15  1  0  0  0  0
 11 12  2  0  0  0  0
 11 27  1  0  0  0  0
 12 17  1  0  0  0  0
 12 18  1  0  0  0  0
 13 16  1  0  0  0  0
 13 29  1  0  0  0  0
 14 19  1  0  0  0  0
 14 30  1  0  0  0  0
 15 31  1  0  0  0  0
 15 32  1  0  0  0  0
 15 33  1  0  0  0  0
 17 20  2  0  0  0  0
 17 21  1  0  0  0  0
 18 19  2  0  0  0  0
 18 34  1  0  0  0  0
 19 35  1  0  0  0  0
 20 22  1  0  0  0  0
 20 36  1  0  0  0  0
 21 23  2  0  0  0  0
 21 37  1  0  0  0  0
 22 24  2  0  0  0  0
 22 38  1  0  0  0  0
 23 24  1  0  0  0  0
 23 39  1  0  0  0  0
 24 25  1  0  0  0  0
M  END
> <PUBCHEM_COMPOUND_CID>
136027080

> <PUBCHEM_COMPOUND_CANONICALIZED>
1

> <PUBCHEM_CACTVS_COMPLEXITY>
598

> <PUBCHEM_CACTVS_HBOND_ACCEPTOR>
3

> <PUBCHEM_CACTVS_HBOND_DONOR>
2

> <PUBCHEM_CACTVS_ROTATABLE_BOND>
2

> <PUBCHEM_CACTVS_SUBSKEYS>
AAADccB7oAAAAAAAAAAAAAAAAAAAAWAAAAAwYIAAAAAAAEAB0AAAHgAYAAAADAiBngAzsJLjAAC6BydycACyBAIhAAAduSAgRNiIoKLA2dGEpAhwnQLIyQ8QgMAOwAACAAAAAACAAAQAAAAAAAAAAAAAAA==

> <PUBCHEM_IUPAC_OPENEYE_NAME>
4-[3-(4-methyl-6-oxo-2,7-dihydropyrazolo[3,4-b]pyridin-3-yl)phenyl]benzonitrile

> <PUBCHEM_IUPAC_CAS_NAME>
4-[3-(4-methyl-6-oxo-2,7-dihydropyrazolo[3,4-b]pyridin-3-yl)phenyl]benzonitrile

> <PUBCHEM_IUPAC_NAME_MARKUP>
4-[3-(4-methyl-6-oxo-2,7-dihydropyrazolo[3,4-b]pyridin-3-yl)phenyl]benzonitrile

> <PUBCHEM_IUPAC_NAME>
4-[3-(4-methyl-6-oxo-2,7-dihydropyrazolo[3,4-b]pyridin-3-yl)phenyl]benzonitrile

> <PUBCHEM_IUPAC_SYSTEMATIC_NAME>
4-[3-(4-methyl-6-oxidanylidene-2,7-dihydropyrazolo[3,4-b]pyridin-3-yl)phenyl]benzenecarbonitrile

> <PUBCHEM_IUPAC_TRADITIONAL_NAME>
4-[3-(6-keto-4-methyl-2,7-dihydropyrazolo[3,4-b]pyridin-3-yl)phenyl]benzonitrile

> <PUBCHEM_IUPAC_INCHI>
InChI=1S/C20H14N4O/c1-12-9-17(25)22-20-18(12)19(23-24-20)16-4-2-3-15(10-16)14-7-5-13(11-21)6-8-14/h2-10H,1H3,(H2,22,23,24,25)

> <PUBCHEM_IUPAC_INCHIKEY>
TWZGZONUMONWKF-UHFFFAOYSA-N

> <PUBCHEM_XLOGP3_AA>
2.9

> <PUBCHEM_EXACT_MASS>
326.11676108

> <PUBCHEM_MOLECULAR_FORMULA>
C20H14N4O

> <PUBCHEM_MOLECULAR_WEIGHT>
326.4

> <PUBCHEM_SMILES>
CC1=CC(=O)NC2=NNC(=C12)C3=CC=CC(=C3)C4=CC=C(C=C4)C#N

> <PUBCHEM_OPENEYE_CAN_SMILES>
CC1=CC(=O)NC2=NNC(=C12)C3=CC=CC(=C3)C4=CC=C(C=C4)C#N

> <PUBCHEM_OPENEYE_ISO_SMILES>
CC1=CC(=O)NC2=NNC(=C12)C3=CC=CC(=C3)C4=CC=C(C=C4)C#N

> <PUBCHEM_CACTVS_TPSA>
81.6

> <PUBCHEM_MONOISOTOPIC_WEIGHT>
326.11676108

> <PUBCHEM_TOTAL_CHARGE>
0

> <PUBCHEM_HEAVY_ATOM_COUNT>
25

> <PUBCHEM_ATOM_DEF_STEREO_COUNT>
0

> <PUBCHEM_ATOM_UDEF_STEREO_COUNT>
0

> <PUBCHEM_BOND_DEF_STEREO_COUNT>
0

> <PUBCHEM_BOND_UDEF_STEREO_COUNT>
0

> <PUBCHEM_ISOTOPIC_ATOM_COUNT>
0

> <PUBCHEM_COMPONENT_COUNT>
1

> <PUBCHEM_CACTVS_TAUTO_COUNT>
-1

> <PUBCHEM_COORDINATE_TYPE>
1
5
255

> <PUBCHEM_BONDANNOTATIONS>
10  13  8
11  12  8
12  18  8
13  16  8
14  19  8
17  20  8
17  21  8
18  19  8
2  4  8
2  7  8
20  22  8
21  23  8
22  24  8
23  24  8
3  16  8
3  9  8
4  9  8
6  10  8
6  7  8
6  9  8
8  11  8
8  14  8

$$$$
