10407341
  -OEChem-03202505092D

 42 45  0     0  0  0  0  0  0999 V2000
    6.7210   -1.7552    0.0000 O   0  0  0  0  0  0  0  0  0  0  0  0
    6.7210    1.7552    0.0000 O   0  0  0  0  0  0  0  0  0  0  0  0
    2.8660   -1.0000    0.0000 N   0  0  0  0  0  0  0  0  0  0  0  0
    2.8660    1.0000    0.0000 N   0  0  0  0  0  0  0  0  0  0  0  0
    6.9939    0.0000    0.0000 N   0  0  0  0  0  0  0  0  0  0  0  0
    2.8660   -6.0000    0.0000 N   0  0  0  0  0  0  0  0  0  0  0  0
    2.8660    6.0000    0.0000 N   0  0  0  0  0  0  0  0  0  0  0  0
    5.4641   -0.5000    0.0000 C   0  0  0  0  0  0  0  0  0  0  0  0
    5.4641    0.5000    0.0000 C   0  0  0  0  0  0  0  0  0  0  0  0
    3.7320   -0.5000    0.0000 C   0  0  0  0  0  0  0  0  0  0  0  0
    3.7320    0.5000    0.0000 C   0  0  0  0  0  0  0  0  0  0  0  0
    4.5981   -1.0000    0.0000 C   0  0  0  0  0  0  0  0  0  0  0  0
    4.5981    1.0000    0.0000 C   0  0  0  0  0  0  0  0  0  0  0  0
    6.4103   -0.8047    0.0000 C   0  0  0  0  0  0  0  0  0  0  0  0
    6.4103    0.8047    0.0000 C   0  0  0  0  0  0  0  0  0  0  0  0
    2.8660   -2.0000    0.0000 C   0  0  0  0  0  0  0  0  0  0  0  0
    2.8660    2.0000    0.0000 C   0  0  0  0  0  0  0  0  0  0  0  0
    2.0000   -2.5000    0.0000 C   0  0  0  0  0  0  0  0  0  0  0  0
    3.7320    2.5000    0.0000 C   0  0  0  0  0  0  0  0  0  0  0  0
    3.7320   -2.5000    0.0000 C   0  0  0  0  0  0  0  0  0  0  0  0
    2.0000    2.5000    0.0000 C   0  0  0  0  0  0  0  0  0  0  0  0
    2.0000   -3.5000    0.0000 C   0  0  0  0  0  0  0  0  0  0  0  0
    3.7320    3.5000    0.0000 C   0  0  0  0  0  0  0  0  0  0  0  0
    3.7320   -3.5000    0.0000 C   0  0  0  0  0  0  0  0  0  0  0  0
    2.0000    3.5000    0.0000 C   0  0  0  0  0  0  0  0  0  0  0  0
    2.8660   -4.0000    0.0000 C   0  0  0  0  0  0  0  0  0  0  0  0
    2.8660    4.0000    0.0000 C   0  0  0  0  0  0  0  0  0  0  0  0
    2.8660   -5.0000    0.0000 C   0  0  0  0  0  0  0  0  0  0  0  0
    2.8660    5.0000    0.0000 C   0  0  0  0  0  0  0  0  0  0  0  0
    4.5981   -1.6200    0.0000 H   0  0  0  0  0  0  0  0  0  0  0  0
    4.5981    1.6200    0.0000 H   0  0  0  0  0  0  0  0  0  0  0  0
    2.3291   -0.6900    0.0000 H   0  0  0  0  0  0  0  0  0  0  0  0
    2.3291    0.6900    0.0000 H   0  0  0  0  0  0  0  0  0  0  0  0
    7.6139    0.0000    0.0000 H   0  0  0  0  0  0  0  0  0  0  0  0
    1.4631   -2.1900    0.0000 H   0  0  0  0  0  0  0  0  0  0  0  0
    4.2690    2.1900    0.0000 H   0  0  0  0  0  0  0  0  0  0  0  0
    4.2690   -2.1900    0.0000 H   0  0  0  0  0  0  0  0  0  0  0  0
    1.4631    2.1900    0.0000 H   0  0  0  0  0  0  0  0  0  0  0  0
    1.4631   -3.8100    0.0000 H   0  0  0  0  0  0  0  0  0  0  0  0
    4.2690    3.8100    0.0000 H   0  0  0  0  0  0  0  0  0  0  0  0
    4.2690   -3.8100    0.0000 H   0  0  0  0  0  0  0  0  0  0  0  0
    1.4631    3.8100    0.0000 H   0  0  0  0  0  0  0  0  0  0  0  0
  1 14  2  0  0  0  0
  2 15  2  0  0  0  0
  3 10  1  0  0  0  0
  3 16  1  0  0  0  0
  3 32  1  0  0  0  0
  4 11  1  0  0  0  0
  4 17  1  0  0  0  0
  4 33  1  0  0  0  0
  5 14  1  0  0  0  0
  5 15  1  0  0  0  0
  5 34  1  0  0  0  0
  6 28  3  0  0  0  0
  7 29  3  0  0  0  0
  8  9  1  0  0  0  0
  8 12  2  0  0  0  0
  8 14  1  0  0  0  0
  9 13  2  0  0  0  0
  9 15  1  0  0  0  0
 10 11  2  0  0  0  0
 10 12  1  0  0  0  0
 11 13  1  0  0  0  0
 12 30  1  0  0  0  0
 13 31  1  0  0  0  0
 16 18  2  0  0  0  0
 16 20  1  0  0  0  0
 17 19  2  0  0  0  0
 17 21  1  0  0  0  0
 18 22  1  0  0  0  0
 18 35  1  0  0  0  0
 19 23  1  0  0  0  0
 19 36  1  0  0  0  0
 20 24  2  0  0  0  0
 20 37  1  0  0  0  0
 21 25  2  0  0  0  0
 21 38  1  0  0  0  0
 22 26  2  0  0  0  0
 22 39  1  0  0  0  0
 23 27  2  0  0  0  0
 23 40  1  0  0  0  0
 24 26  1  0  0  0  0
 24 41  1  0  0  0  0
 25 27  1  0  0  0  0
 25 42  1  0  0  0  0
 26 28  1  0  0  0  0
 27 29  1  0  0  0  0
M  END
> <PUBCHEM_COMPOUND_CID>
10407341

> <PUBCHEM_COMPOUND_CANONICALIZED>
1

> <PUBCHEM_CACTVS_COMPLEXITY>
671

> <PUBCHEM_CACTVS_HBOND_ACCEPTOR>
6

> <PUBCHEM_CACTVS_HBOND_DONOR>
3

> <PUBCHEM_CACTVS_ROTATABLE_BOND>
4

> <PUBCHEM_CACTVS_SUBSKEYS>
AAADccB7sAAAAAAAAAAAAAAAAAAAAWAAAAAwYMAAAAAAAFgBUAAAHgAQAAAADAiBmAAwwILAAACYBiVSUACiAAAlAgAIiAEAdMgI4HLAlZGUIQhglCDIyY8diYCeiAAAQAAQACAQAACAACAAQAAAAAAAAA==

> <PUBCHEM_IUPAC_OPENEYE_NAME>
4-[[6-(4-cyanoanilino)-1,3-dioxo-isoindolin-5-yl]amino]benzonitrile

> <PUBCHEM_IUPAC_CAS_NAME>
4-[[6-(4-cyanoanilino)-1,3-dioxo-5-isoindolyl]amino]benzonitrile

> <PUBCHEM_IUPAC_NAME_MARKUP>
4-[[6-(4-cyanoanilino)-1,3-dioxoisoindol-5-yl]amino]benzonitrile

> <PUBCHEM_IUPAC_NAME>
4-[[6-(4-cyanoanilino)-1,3-dioxoisoindol-5-yl]amino]benzonitrile

> <PUBCHEM_IUPAC_SYSTEMATIC_NAME>
4-[[6-[(4-cyanophenyl)amino]-1,3-bis(oxidanylidene)isoindol-5-yl]amino]benzenecarbonitrile

> <PUBCHEM_IUPAC_TRADITIONAL_NAME>
4-[[6-(4-cyanoanilino)-1,3-diketo-isoindolin-5-yl]amino]benzonitrile

> <PUBCHEM_IUPAC_INCHI>
InChI=1S/C22H13N5O2/c23-11-13-1-5-15(6-2-13)25-19-9-17-18(22(29)27-21(17)28)10-20(19)26-16-7-3-14(12-24)4-8-16/h1-10,25-26H,(H,27,28,29)

> <PUBCHEM_IUPAC_INCHIKEY>
KQTHJPWPAZKUSZ-UHFFFAOYSA-N

> <PUBCHEM_XLOGP3_AA>
3.2

> <PUBCHEM_EXACT_MASS>
379.10692467

> <PUBCHEM_MOLECULAR_FORMULA>
C22H13N5O2

> <PUBCHEM_MOLECULAR_WEIGHT>
379.4

> <PUBCHEM_SMILES>
C1=CC(=CC=C1C#N)NC2=C(C=C3C(=C2)C(=O)NC3=O)NC4=CC=C(C=C4)C#N

> <PUBCHEM_OPENEYE_CAN_SMILES>
C1=CC(=CC=C1C#N)NC2=C(C=C3C(=C2)C(=O)NC3=O)NC4=CC=C(C=C4)C#N

> <PUBCHEM_OPENEYE_ISO_SMILES>
C1=CC(=CC=C1C#N)NC2=C(C=C3C(=C2)C(=O)NC3=O)NC4=CC=C(C=C4)C#N

> <PUBCHEM_CACTVS_TPSA>
118

> <PUBCHEM_MONOISOTOPIC_WEIGHT>
379.10692467

> <PUBCHEM_TOTAL_CHARGE>
0

> <PUBCHEM_HEAVY_ATOM_COUNT>
29

> <PUBCHEM_ATOM_DEF_STEREO_COUNT>
0

> <PUBCHEM_ATOM_UDEF_STEREO_COUNT>
0

> <PUBCHEM_BOND_DEF_STEREO_COUNT>
0

> <PUBCHEM_BOND_UDEF_STEREO_COUNT>
0

> <PUBCHEM_ISOTOPIC_ATOM_COUNT>
0

> <PUBCHEM_COMPONENT_COUNT>
1

> <PUBCHEM_CACTVS_TAUTO_COUNT>
-1

> <PUBCHEM_COORDINATE_TYPE>
1
5
255

> <PUBCHEM_BONDANNOTATIONS>
10  11  8
10  12  8
11  13  8
16  18  8
16  20  8
17  19  8
17  21  8
18  22  8
19  23  8
20  24  8
21  25  8
22  26  8
23  27  8
24  26  8
25  27  8
8  12  8
8  9  8
9  13  8

$$$$
