13009346
  -OEChem-03202505382D

 68 74  0     1  0  0  0  0  0999 V2000
    4.8175   -0.0103    0.0000 O   0  0  0  0  0  0  0  0  0  0  0  0
    4.7710   -2.6557    0.0000 O   0  0  0  0  0  0  0  0  0  0  0  0
    2.8139   -2.2433    0.0000 O   0  0  0  0  0  0  0  0  0  0  0  0
    2.1926   -0.3422    0.0000 O   0  0  0  0  0  0  0  0  0  0  0  0
    9.8326   -1.7552    0.0000 O   0  0  0  0  0  0  0  0  0  0  0  0
    9.8326    1.7552    0.0000 O   0  0  0  0  0  0  0  0  0  0  0  0
    6.2656   -4.7683    0.0000 O   0  0  0  0  0  0  0  0  0  0  0  0
    6.2656    4.7683    0.0000 O   0  0  0  0  0  0  0  0  0  0  0  0
   13.1055    1.7320    0.0000 O   0  0  0  0  0  0  0  0  0  0  0  0
   11.6055    2.5981    0.0000 O   0  0  0  0  0  0  0  0  0  0  0  0
    6.1066   -1.1671    0.0000 N   0  0  0  0  0  0  0  0  0  0  0  0
    6.1066    1.1671    0.0000 N   0  0  0  0  0  0  0  0  0  0  0  0
   10.1055    0.0000    0.0000 N   0  0  0  0  0  0  0  0  0  0  0  0
   11.1055    0.0000    0.0000 N   0  0  0  0  0  0  0  0  0  0  0  0
    5.1281   -0.9609    0.0000 C   0  0  1  0  0  0  0  0  0  0  0  0
    6.8436   -0.5000    0.0000 C   0  0  0  0  0  0  0  0  0  0  0  0
    4.4603   -1.7052    0.0000 C   0  0  1  0  0  0  0  0  0  0  0  0
    7.7097   -1.0000    0.0000 C   0  0  0  0  0  0  0  0  0  0  0  0
    6.8436    0.5000    0.0000 C   0  0  0  0  0  0  0  0  0  0  0  0
    6.5118   -2.0749    0.0000 C   0  0  0  0  0  0  0  0  0  0  0  0
    3.4818   -1.4990    0.0000 C   0  0  2  0  0  0  0  0  0  0  0  0
    7.5005   -1.9718    0.0000 C   0  0  0  0  0  0  0  0  0  0  0  0
    8.5757   -0.5000    0.0000 C   0  0  0  0  0  0  0  0  0  0  0  0
    7.7097    1.0000    0.0000 C   0  0  0  0  0  0  0  0  0  0  0  0
    8.5757    0.5000    0.0000 C   0  0  0  0  0  0  0  0  0  0  0  0
    3.1711   -0.5484    0.0000 C   0  0  1  0  0  0  0  0  0  0  0  0
    3.8390    0.1959    0.0000 C   0  0  0  0  0  0  0  0  0  0  0  0
    7.5005    1.9718    0.0000 C   0  0  0  0  0  0  0  0  0  0  0  0
    6.5118    2.0749    0.0000 C   0  0  0  0  0  0  0  0  0  0  0  0
    9.5219   -0.8047    0.0000 C   0  0  0  0  0  0  0  0  0  0  0  0
    9.5219    0.8047    0.0000 C   0  0  0  0  0  0  0  0  0  0  0  0
    6.0752   -3.0138    0.0000 C   0  0  0  0  0  0  0  0  0  0  0  0
    8.1212   -2.8006    0.0000 C   0  0  0  0  0  0  0  0  0  0  0  0
    6.6767   -3.8567    0.0000 C   0  0  0  0  0  0  0  0  0  0  0  0
    8.1212    2.8006    0.0000 C   0  0  0  0  0  0  0  0  0  0  0  0
    7.7066   -3.7494    0.0000 C   0  0  0  0  0  0  0  0  0  0  0  0
    6.0752    3.0138    0.0000 C   0  0  0  0  0  0  0  0  0  0  0  0
   11.6055    0.8660    0.0000 C   0  0  0  0  0  0  0  0  0  0  0  0
    7.7066    3.7494    0.0000 C   0  0  0  0  0  0  0  0  0  0  0  0
    6.6767    3.8567    0.0000 C   0  0  0  0  0  0  0  0  0  0  0  0
   12.6055    0.8660    0.0000 C   0  0  0  0  0  0  0  0  0  0  0  0
   11.1055    1.7320    0.0000 C   0  0  0  0  0  0  0  0  0  0  0  0
    5.3207   -1.5502    0.0000 H   0  0  0  0  0  0  0  0  0  0  0  0
    4.0462   -2.1666    0.0000 H   0  0  0  0  0  0  0  0  0  0  0  0
    2.8751   -1.3711    0.0000 H   0  0  0  0  0  0  0  0  0  0  0  0
    2.9785    0.0409    0.0000 H   0  0  0  0  0  0  0  0  0  0  0  0
    4.0702    0.7711    0.0000 H   0  0  0  0  0  0  0  0  0  0  0  0
    3.3126    0.5235    0.0000 H   0  0  0  0  0  0  0  0  0  0  0  0
    5.5000    1.0392    0.0000 H   0  0  0  0  0  0  0  0  0  0  0  0
    5.4579   -3.0710    0.0000 H   0  0  0  0  0  0  0  0  0  0  0  0
    8.7371   -2.7292    0.0000 H   0  0  0  0  0  0  0  0  0  0  0  0
    4.3569   -3.1172    0.0000 H   0  0  0  0  0  0  0  0  0  0  0  0
    2.2073   -2.1154    0.0000 H   0  0  0  0  0  0  0  0  0  0  0  0
    8.7371    2.7292    0.0000 H   0  0  0  0  0  0  0  0  0  0  0  0
    8.0725   -4.2499    0.0000 H   0  0  0  0  0  0  0  0  0  0  0  0
    5.4579    3.0710    0.0000 H   0  0  0  0  0  0  0  0  0  0  0  0
    2.0000    0.2471    0.0000 H   0  0  0  0  0  0  0  0  0  0  0  0
   11.4155   -0.5369    0.0000 H   0  0  0  0  0  0  0  0  0  0  0  0
   11.9155    0.3291    0.0000 H   0  0  0  0  0  0  0  0  0  0  0  0
    8.0725    4.2499    0.0000 H   0  0  0  0  0  0  0  0  0  0  0  0
   12.4979    0.2554    0.0000 H   0  0  0  0  0  0  0  0  0  0  0  0
   13.1881    0.6540    0.0000 H   0  0  0  0  0  0  0  0  0  0  0  0
   10.6306    2.1306    0.0000 H   0  0  0  0  0  0  0  0  0  0  0  0
   10.6306    1.3335    0.0000 H   0  0  0  0  0  0  0  0  0  0  0  0
    6.6277   -5.2716    0.0000 H   0  0  0  0  0  0  0  0  0  0  0  0
    6.6277    5.2716    0.0000 H   0  0  0  0  0  0  0  0  0  0  0  0
   13.7255    1.7320    0.0000 H   0  0  0  0  0  0  0  0  0  0  0  0
   11.2955    3.1350    0.0000 H   0  0  0  0  0  0  0  0  0  0  0  0
  1 15  1  0  0  0  0
  1 27  1  0  0  0  0
 17  2  1  6  0  0  0
  2 52  1  0  0  0  0
 21  3  1  1  0  0  0
  3 53  1  0  0  0  0
 26  4  1  6  0  0  0
  4 57  1  0  0  0  0
  5 30  2  0  0  0  0
  6 31  2  0  0  0  0
  7 34  1  0  0  0  0
  7 65  1  0  0  0  0
  8 40  1  0  0  0  0
  8 66  1  0  0  0  0
  9 41  1  0  0  0  0
  9 67  1  0  0  0  0
 10 42  1  0  0  0  0
 10 68  1  0  0  0  0
 15 11  1  1  0  0  0
 11 16  1  0  0  0  0
 11 20  1  0  0  0  0
 12 19  1  0  0  0  0
 12 29  1  0  0  0  0
 12 49  1  0  0  0  0
 13 14  1  0  0  0  0
 13 30  1  0  0  0  0
 13 31  1  0  0  0  0
 14 38  1  0  0  0  0
 14 58  1  0  0  0  0
 15 17  1  0  0  0  0
 15 43  1  0  0  0  0
 16 18  1  0  0  0  0
 16 19  2  0  0  0  0
 17 21  1  0  0  0  0
 17 44  1  0  0  0  0
 18 22  1  0  0  0  0
 18 23  2  0  0  0  0
 19 24  1  0  0  0  0
 20 22  2  0  0  0  0
 20 32  1  0  0  0  0
 21 26  1  0  0  0  0
 21 45  1  0  0  0  0
 22 33  1  0  0  0  0
 23 25  1  0  0  0  0
 23 30  1  0  0  0  0
 24 25  2  0  0  0  0
 24 28  1  0  0  0  0
 25 31  1  0  0  0  0
 26 27  1  0  0  0  0
 26 46  1  0  0  0  0
 27 47  1  0  0  0  0
 27 48  1  0  0  0  0
 28 29  2  0  0  0  0
 28 35  1  0  0  0  0
 29 37  1  0  0  0  0
 32 34  2  0  0  0  0
 32 50  1  0  0  0  0
 33 36  2  0  0  0  0
 33 51  1  0  0  0  0
 34 36  1  0  0  0  0
 35 39  2  0  0  0  0
 35 54  1  0  0  0  0
 36 55  1  0  0  0  0
 37 40  2  0  0  0  0
 37 56  1  0  0  0  0
 38 41  1  0  0  0  0
 38 42  1  0  0  0  0
 38 59  1  0  0  0  0
 39 40  1  0  0  0  0
 39 60  1  0  0  0  0
 41 61  1  0  0  0  0
 41 62  1  0  0  0  0
 42 63  1  0  0  0  0
 42 64  1  0  0  0  0
M  END
> <PUBCHEM_COMPOUND_CID>
13009346

> <PUBCHEM_COMPOUND_CANONICALIZED>
1

> <PUBCHEM_CACTVS_COMPLEXITY>
1070

> <PUBCHEM_CACTVS_HBOND_ACCEPTOR>
11

> <PUBCHEM_CACTVS_HBOND_DONOR>
9

> <PUBCHEM_CACTVS_ROTATABLE_BOND>
5

> <PUBCHEM_CACTVS_SUBSKEYS>
AAADceB7vAAAAAAAAAAAAAAAAAAAAWLFgAA0YMEAAAAAAFgB/gAAHgAYCAAADDzhngYwxvPvlgCoAyVyVACCgCQlMiAa+aE+fNgLdvLClZOecQhn1Dnb2Qf92fOe6AACQgASACDQAASEACQAQAAAAAAAAA==

> <PUBCHEM_IUPAC_OPENEYE_NAME>
6,20-dihydroxy-13-[[2-hydroxy-1-(hydroxymethyl)ethyl]amino]-3-[(2R,3R,4S,5R)-3,4,5-trihydroxytetrahydropyran-2-yl]-3,13,23-triazahexacyclo[14.7.0.02,10.04,9.011,15.017,22]tricosa-1,4(9),5,7,10,15,17(22),18,20-nonaene-12,14-dione

> <PUBCHEM_IUPAC_CAS_NAME>
13-(1,3-dihydroxypropan-2-ylamino)-6,20-dihydroxy-3-[(2R,3R,4S,5R)-3,4,5-trihydroxy-2-oxanyl]-3,13,23-triazahexacyclo[14.7.0.02,10.04,9.011,15.017,22]tricosa-1,4(9),5,7,10,15,17(22),18,20-nonaene-12,14-dione

> <PUBCHEM_IUPAC_NAME_MARKUP>
13-(1,3-dihydroxypropan-2-ylamino)-6,20-dihydroxy-3-[(2<I>R</I>,3<I>R</I>,4<I>S</I>,5<I>R</I>)-3,4,5-trihydroxyoxan-2-yl]-3,13,23-triazahexacyclo[14.7.0.0<SUP>2,10</SUP>.0<SUP>4,9</SUP>.0<SUP>11,15</SUP>.0<SUP>17,22</SUP>]tricosa-1,4(9),5,7,10,15,17(22),18,20-nonaene-12,14-dione

> <PUBCHEM_IUPAC_NAME>
13-(1,3-dihydroxypropan-2-ylamino)-6,20-dihydroxy-3-[(2R,3R,4S,5R)-3,4,5-trihydroxyoxan-2-yl]-3,13,23-triazahexacyclo[14.7.0.02,10.04,9.011,15.017,22]tricosa-1,4(9),5,7,10,15,17(22),18,20-nonaene-12,14-dione

> <PUBCHEM_IUPAC_SYSTEMATIC_NAME>
13-[1,3-bis(oxidanyl)propan-2-ylamino]-6,20-bis(oxidanyl)-3-[(2R,3R,4S,5R)-3,4,5-tris(oxidanyl)oxan-2-yl]-3,13,23-triazahexacyclo[14.7.0.02,10.04,9.011,15.017,22]tricosa-1,4(9),5,7,10,15,17(22),18,20-nonaene-12,14-dione

> <PUBCHEM_IUPAC_TRADITIONAL_NAME>
6,20-dihydroxy-13-[(2-hydroxy-1-methylol-ethyl)amino]-3-[(2R,3R,4S,5R)-3,4,5-trihydroxytetrahydropyran-2-yl]-3,13,23-triazahexacyclo[14.7.0.02,10.04,9.011,15.017,22]tricosa-1,4(9),5,7,10,15,17(22),18,20-nonaene-12,14-quinone

> <PUBCHEM_IUPAC_INCHI>
InChI=1S/C28H26N4O10/c33-7-10(8-34)30-32-26(40)20-18-13-3-1-11(35)5-15(13)29-22(18)23-19(21(20)27(32)41)14-4-2-12(36)6-16(14)31(23)28-25(39)24(38)17(37)9-42-28/h1-6,10,17,24-25,28-30,33-39H,7-9H2/t17-,24+,25-,28-/m1/s1

> <PUBCHEM_IUPAC_INCHIKEY>
DLSHMPQPEODNJQ-PKMVOSEESA-N

> <PUBCHEM_XLOGP3_AA>
-0.6

> <PUBCHEM_EXACT_MASS>
578.16489304

> <PUBCHEM_MOLECULAR_FORMULA>
C28H26N4O10

> <PUBCHEM_MOLECULAR_WEIGHT>
578.5

> <PUBCHEM_SMILES>
C1[C@H]([C@@H]([C@H]([C@@H](O1)N2C3=C(C=CC(=C3)O)C4=C5C(=C6C7=C(C=C(C=C7)O)NC6=C42)C(=O)N(C5=O)NC(CO)CO)O)O)O

> <PUBCHEM_OPENEYE_CAN_SMILES>
C1C(C(C(C(O1)N2C3=C(C=CC(=C3)O)C4=C5C(=C6C7=C(C=C(C=C7)O)NC6=C42)C(=O)N(C5=O)NC(CO)CO)O)O)O

> <PUBCHEM_OPENEYE_ISO_SMILES>
C1[C@H]([C@@H]([C@H]([C@@H](O1)N2C3=C(C=CC(=C3)O)C4=C5C(=C6C7=C(C=C(C=C7)O)NC6=C42)C(=O)N(C5=O)NC(CO)CO)O)O)O

> <PUBCHEM_CACTVS_TPSA>
221

> <PUBCHEM_MONOISOTOPIC_WEIGHT>
578.16489304

> <PUBCHEM_TOTAL_CHARGE>
0

> <PUBCHEM_HEAVY_ATOM_COUNT>
42

> <PUBCHEM_ATOM_DEF_STEREO_COUNT>
4

> <PUBCHEM_ATOM_UDEF_STEREO_COUNT>
0

> <PUBCHEM_BOND_DEF_STEREO_COUNT>
0

> <PUBCHEM_BOND_UDEF_STEREO_COUNT>
0

> <PUBCHEM_ISOTOPIC_ATOM_COUNT>
0

> <PUBCHEM_COMPONENT_COUNT>
1

> <PUBCHEM_CACTVS_TAUTO_COUNT>
-1

> <PUBCHEM_COORDINATE_TYPE>
1
5
255

> <PUBCHEM_BONDANNOTATIONS>
15  11  5
11  16  8
11  20  8
12  19  8
12  29  8
16  18  8
16  19  8
18  22  8
18  23  8
19  24  8
17  2  6
20  22  8
20  32  8
22  33  8
23  25  8
24  25  8
24  28  8
28  29  8
28  35  8
29  37  8
21  3  5
32  34  8
33  36  8
34  36  8
35  39  8
37  40  8
39  40  8
26  4  6

$$$$
