44588881
  -OEChem-03202506522D

 56 59  0     0  0  0  0  0  0999 V2000
    4.5981    0.8724    0.0000 O   0  0  0  0  0  0  0  0  0  0  0  0
   10.5920   -1.3597    0.0000 O   0  0  0  0  0  0  0  0  0  0  0  0
    5.4641   -0.6276    0.0000 N   0  0  0  0  0  0  0  0  0  0  0  0
    9.0084    1.1771    0.0000 N   0  0  0  0  0  0  0  0  0  0  0  0
    9.0084   -0.4324    0.0000 N   0  0  0  0  0  0  0  0  0  0  0  0
   10.5920    0.3724    0.0000 N   0  0  0  0  0  0  0  0  0  0  0  0
   16.0920   -0.4937    0.0000 N   0  0  0  0  0  0  0  0  0  0  0  0
    3.7320   -0.6276    0.0000 C   0  0  0  0  0  0  0  0  0  0  0  0
    2.8660   -0.1276    0.0000 C   0  0  0  0  0  0  0  0  0  0  0  0
    3.7320   -1.6276    0.0000 C   0  0  0  0  0  0  0  0  0  0  0  0
    2.0000   -0.6276    0.0000 C   0  0  0  0  0  0  0  0  0  0  0  0
    2.8660   -2.1276    0.0000 C   0  0  0  0  0  0  0  0  0  0  0  0
    2.0000   -1.6276    0.0000 C   0  0  0  0  0  0  0  0  0  0  0  0
    4.5981   -0.1276    0.0000 C   0  0  0  0  0  0  0  0  0  0  0  0
    6.3301   -0.1276    0.0000 C   0  0  0  0  0  0  0  0  0  0  0  0
    5.4641   -1.6276    0.0000 C   0  0  0  0  0  0  0  0  0  0  0  0
    7.1962   -0.6276    0.0000 C   0  0  0  0  0  0  0  0  0  0  0  0
    6.3301    0.8724    0.0000 C   0  0  0  0  0  0  0  0  0  0  0  0
    8.0622   -0.1276    0.0000 C   0  0  0  0  0  0  0  0  0  0  0  0
    8.0622    0.8724    0.0000 C   0  0  0  0  0  0  0  0  0  0  0  0
    7.1962    1.3724    0.0000 C   0  0  0  0  0  0  0  0  0  0  0  0
    9.5920    0.3724    0.0000 C   0  0  0  0  0  0  0  0  0  0  0  0
    9.3191    2.1276    0.0000 C   0  0  0  0  0  0  0  0  0  0  0  0
   11.0920   -0.4937    0.0000 C   0  0  0  0  0  0  0  0  0  0  0  0
   12.0920   -0.4937    0.0000 C   0  0  0  0  0  0  0  0  0  0  0  0
   12.5920    0.3724    0.0000 C   0  0  0  0  0  0  0  0  0  0  0  0
   12.5920   -1.3597    0.0000 C   0  0  0  0  0  0  0  0  0  0  0  0
   13.5920    0.3724    0.0000 C   0  0  0  0  0  0  0  0  0  0  0  0
   13.5920   -1.3597    0.0000 C   0  0  0  0  0  0  0  0  0  0  0  0
   14.0920   -0.4937    0.0000 C   0  0  0  0  0  0  0  0  0  0  0  0
   15.0920   -0.4937    0.0000 C   0  0  0  0  0  0  0  0  0  0  0  0
    3.7320   -0.0076    0.0000 H   0  0  0  0  0  0  0  0  0  0  0  0
    3.2646    0.3473    0.0000 H   0  0  0  0  0  0  0  0  0  0  0  0
    2.4675    0.3473    0.0000 H   0  0  0  0  0  0  0  0  0  0  0  0
    3.9441   -2.2102    0.0000 H   0  0  0  0  0  0  0  0  0  0  0  0
    4.3426   -1.5200    0.0000 H   0  0  0  0  0  0  0  0  0  0  0  0
    1.7880   -0.0450    0.0000 H   0  0  0  0  0  0  0  0  0  0  0  0
    1.3894   -0.7353    0.0000 H   0  0  0  0  0  0  0  0  0  0  0  0
    2.4675   -2.6026    0.0000 H   0  0  0  0  0  0  0  0  0  0  0  0
    3.2646   -2.6026    0.0000 H   0  0  0  0  0  0  0  0  0  0  0  0
    1.3894   -1.5200    0.0000 H   0  0  0  0  0  0  0  0  0  0  0  0
    1.7880   -2.2102    0.0000 H   0  0  0  0  0  0  0  0  0  0  0  0
    4.8441   -1.6276    0.0000 H   0  0  0  0  0  0  0  0  0  0  0  0
    5.4641   -2.2476    0.0000 H   0  0  0  0  0  0  0  0  0  0  0  0
    6.0841   -1.6276    0.0000 H   0  0  0  0  0  0  0  0  0  0  0  0
    7.1962   -1.2476    0.0000 H   0  0  0  0  0  0  0  0  0  0  0  0
    5.7932    1.1824    0.0000 H   0  0  0  0  0  0  0  0  0  0  0  0
    7.1962    1.9924    0.0000 H   0  0  0  0  0  0  0  0  0  0  0  0
    9.9084    1.9350    0.0000 H   0  0  0  0  0  0  0  0  0  0  0  0
    9.5117    2.7170    0.0000 H   0  0  0  0  0  0  0  0  0  0  0  0
    8.7297    2.3202    0.0000 H   0  0  0  0  0  0  0  0  0  0  0  0
   10.9020    0.9093    0.0000 H   0  0  0  0  0  0  0  0  0  0  0  0
   12.2820    0.9093    0.0000 H   0  0  0  0  0  0  0  0  0  0  0  0
   12.2820   -1.8966    0.0000 H   0  0  0  0  0  0  0  0  0  0  0  0
   13.9020    0.9093    0.0000 H   0  0  0  0  0  0  0  0  0  0  0  0
   13.9020   -1.8966    0.0000 H   0  0  0  0  0  0  0  0  0  0  0  0
  1 14  2  0  0  0  0
  2 24  2  0  0  0  0
  3 14  1  0  0  0  0
  3 15  1  0  0  0  0
  3 16  1  0  0  0  0
  4 20  1  0  0  0  0
  4 22  1  0  0  0  0
  4 23  1  0  0  0  0
  5 19  1  0  0  0  0
  5 22  2  0  0  0  0
  6 22  1  0  0  0  0
  6 24  1  0  0  0  0
  6 52  1  0  0  0  0
  7 31  3  0  0  0  0
  8  9  1  0  0  0  0
  8 10  1  0  0  0  0
  8 14  1  0  0  0  0
  8 32  1  0  0  0  0
  9 11  1  0  0  0  0
  9 33  1  0  0  0  0
  9 34  1  0  0  0  0
 10 12  1  0  0  0  0
 10 35  1  0  0  0  0
 10 36  1  0  0  0  0
 11 13  1  0  0  0  0
 11 37  1  0  0  0  0
 11 38  1  0  0  0  0
 12 13  1  0  0  0  0
 12 39  1  0  0  0  0
 12 40  1  0  0  0  0
 13 41  1  0  0  0  0
 13 42  1  0  0  0  0
 15 17  2  0  0  0  0
 15 18  1  0  0  0  0
 16 43  1  0  0  0  0
 16 44  1  0  0  0  0
 16 45  1  0  0  0  0
 17 19  1  0  0  0  0
 17 46  1  0  0  0  0
 18 21  2  0  0  0  0
 18 47  1  0  0  0  0
 19 20  2  0  0  0  0
 20 21  1  0  0  0  0
 21 48  1  0  0  0  0
 23 49  1  0  0  0  0
 23 50  1  0  0  0  0
 23 51  1  0  0  0  0
 24 25  1  0  0  0  0
 25 26  2  0  0  0  0
 25 27  1  0  0  0  0
 26 28  1  0  0  0  0
 26 53  1  0  0  0  0
 27 29  2  0  0  0  0
 27 54  1  0  0  0  0
 28 30  2  0  0  0  0
 28 55  1  0  0  0  0
 29 30  1  0  0  0  0
 29 56  1  0  0  0  0
 30 31  1  0  0  0  0
M  END
> <PUBCHEM_COMPOUND_CID>
44588881

> <PUBCHEM_COMPOUND_CANONICALIZED>
1

> <PUBCHEM_CACTVS_COMPLEXITY>
704

> <PUBCHEM_CACTVS_HBOND_ACCEPTOR>
4

> <PUBCHEM_CACTVS_HBOND_DONOR>
1

> <PUBCHEM_CACTVS_ROTATABLE_BOND>
4

> <PUBCHEM_CACTVS_SUBSKEYS>
AAADceB7sAAAAAAAAAAAAAAAAAAAAWAAAAAwYMAAAAAAAFgB9AAAHgAQAAAADQiBngQz0LfMEAC4ByVydACigC0lEqAJ2CE4dNiI6LLA3dGUJQhohwLIya8YiACOQACAAAQAACCAAQAACAAAQAAAAAAAAA==

> <PUBCHEM_IUPAC_OPENEYE_NAME>
4-cyano-N-[5-[cyclohexanecarbonyl(methyl)amino]-1-methyl-benzimidazol-2-yl]benzamide

> <PUBCHEM_IUPAC_CAS_NAME>
4-cyano-N-[5-[[cyclohexyl(oxo)methyl]-methylamino]-1-methyl-2-benzimidazolyl]benzamide

> <PUBCHEM_IUPAC_NAME_MARKUP>
4-cyano-<I>N</I>-[5-[cyclohexanecarbonyl(methyl)amino]-1-methylbenzimidazol-2-yl]benzamide

> <PUBCHEM_IUPAC_NAME>
4-cyano-N-[5-[cyclohexanecarbonyl(methyl)amino]-1-methylbenzimidazol-2-yl]benzamide

> <PUBCHEM_IUPAC_SYSTEMATIC_NAME>
4-cyano-N-[5-[cyclohexylcarbonyl(methyl)amino]-1-methyl-benzimidazol-2-yl]benzamide

> <PUBCHEM_IUPAC_TRADITIONAL_NAME>
4-cyano-N-[5-[cyclohexanecarbonyl(methyl)amino]-1-methyl-benzimidazol-2-yl]benzamide

> <PUBCHEM_IUPAC_INCHI>
InChI=1S/C24H25N5O2/c1-28(23(31)18-6-4-3-5-7-18)19-12-13-21-20(14-19)26-24(29(21)2)27-22(30)17-10-8-16(15-25)9-11-17/h8-14,18H,3-7H2,1-2H3,(H,26,27,30)

> <PUBCHEM_IUPAC_INCHIKEY>
AOFJRBMLTUGMMP-UHFFFAOYSA-N

> <PUBCHEM_XLOGP3_AA>
3.8

> <PUBCHEM_EXACT_MASS>
415.20082506

> <PUBCHEM_MOLECULAR_FORMULA>
C24H25N5O2

> <PUBCHEM_MOLECULAR_WEIGHT>
415.5

> <PUBCHEM_SMILES>
CN1C2=C(C=C(C=C2)N(C)C(=O)C3CCCCC3)N=C1NC(=O)C4=CC=C(C=C4)C#N

> <PUBCHEM_OPENEYE_CAN_SMILES>
CN1C2=C(C=C(C=C2)N(C)C(=O)C3CCCCC3)N=C1NC(=O)C4=CC=C(C=C4)C#N

> <PUBCHEM_OPENEYE_ISO_SMILES>
CN1C2=C(C=C(C=C2)N(C)C(=O)C3CCCCC3)N=C1NC(=O)C4=CC=C(C=C4)C#N

> <PUBCHEM_CACTVS_TPSA>
91

> <PUBCHEM_MONOISOTOPIC_WEIGHT>
415.20082506

> <PUBCHEM_TOTAL_CHARGE>
0

> <PUBCHEM_HEAVY_ATOM_COUNT>
31

> <PUBCHEM_ATOM_DEF_STEREO_COUNT>
0

> <PUBCHEM_ATOM_UDEF_STEREO_COUNT>
0

> <PUBCHEM_BOND_DEF_STEREO_COUNT>
0

> <PUBCHEM_BOND_UDEF_STEREO_COUNT>
0

> <PUBCHEM_ISOTOPIC_ATOM_COUNT>
0

> <PUBCHEM_COMPONENT_COUNT>
1

> <PUBCHEM_CACTVS_TAUTO_COUNT>
-1

> <PUBCHEM_COORDINATE_TYPE>
1
5
255

> <PUBCHEM_BONDANNOTATIONS>
15  17  8
15  18  8
17  19  8
18  21  8
19  20  8
20  21  8
25  26  8
25  27  8
26  28  8
27  29  8
28  30  8
29  30  8
4  20  8
4  22  8
5  19  8
5  22  8

$$$$
