24899916
  -OEChem-03202506532D

 33 35  0     0  0  0  0  0  0999 V2000
    6.0682   -1.8609    0.0000 O   0  0  0  0  0  0  0  0  0  0  0  0
    6.9464    2.7083    0.0000 O   0  0  0  0  0  0  0  0  0  0  0  0
    4.3198   -2.8955    0.0000 O   0  0  0  0  0  0  0  0  0  0  0  0
    8.7045   -0.3640    0.0000 O   0  0  0  0  0  0  0  0  0  0  0  0
    2.5381   -1.8850    0.0000 O   0  0  0  0  0  0  0  0  0  0  0  0
    7.8003   -1.8609    0.0000 O   0  0  0  0  0  0  0  0  0  0  0  0
    5.2022   -0.3609    0.0000 C   0  0  0  0  0  0  0  0  0  0  0  0
    6.0682    0.1391    0.0000 C   0  0  0  0  0  0  0  0  0  0  0  0
    6.9343   -0.3609    0.0000 C   0  0  0  0  0  0  0  0  0  0  0  0
    5.2022   -1.3609    0.0000 C   0  0  0  0  0  0  0  0  0  0  0  0
    4.3083    0.1738    0.0000 C   0  0  0  0  0  0  0  0  0  0  0  0
    6.0522    1.1806    0.0000 C   0  0  0  0  0  0  0  0  0  0  0  0
    4.3083   -1.8956    0.0000 C   0  0  0  0  0  0  0  0  0  0  0  0
    7.8443    0.1459    0.0000 C   0  0  0  0  0  0  0  0  0  0  0  0
    3.4022   -0.3401    0.0000 C   0  0  0  0  0  0  0  0  0  0  0  0
    6.9343   -1.3609    0.0000 C   0  0  0  0  0  0  0  0  0  0  0  0
    3.4022   -1.3817    0.0000 C   0  0  0  0  0  0  0  0  0  0  0  0
    6.9502    1.7084    0.0000 C   0  0  0  0  0  0  0  0  0  0  0  0
    4.3198    1.1737    0.0000 C   0  0  0  0  0  0  0  0  0  0  0  0
    7.8523    1.1875    0.0000 C   0  0  0  0  0  0  0  0  0  0  0  0
    7.8105    3.2117    0.0000 C   0  0  0  0  0  0  0  0  0  0  0  0
    5.5117    1.4844    0.0000 H   0  0  0  0  0  0  0  0  0  0  0  0
    2.8665   -0.0280    0.0000 H   0  0  0  0  0  0  0  0  0  0  0  0
    4.9398    1.1665    0.0000 H   0  0  0  0  0  0  0  0  0  0  0  0
    4.3270    1.7936    0.0000 H   0  0  0  0  0  0  0  0  0  0  0  0
    3.6999    1.1809    0.0000 H   0  0  0  0  0  0  0  0  0  0  0  0
    8.3904    1.4955    0.0000 H   0  0  0  0  0  0  0  0  0  0  0  0
    3.7865   -3.2117    0.0000 H   0  0  0  0  0  0  0  0  0  0  0  0
    9.2450   -0.0603    0.0000 H   0  0  0  0  0  0  0  0  0  0  0  0
    2.0000   -1.5771    0.0000 H   0  0  0  0  0  0  0  0  0  0  0  0
    8.1225    2.6760    0.0000 H   0  0  0  0  0  0  0  0  0  0  0  0
    8.3462    3.5238    0.0000 H   0  0  0  0  0  0  0  0  0  0  0  0
    7.4984    3.7474    0.0000 H   0  0  0  0  0  0  0  0  0  0  0  0
  1 10  1  0  0  0  0
  1 16  1  0  0  0  0
  2 18  1  0  0  0  0
  2 21  1  0  0  0  0
  3 13  1  0  0  0  0
  3 28  1  0  0  0  0
  4 14  1  0  0  0  0
  4 29  1  0  0  0  0
  5 17  1  0  0  0  0
  5 30  1  0  0  0  0
  6 16  2  0  0  0  0
  7  8  1  0  0  0  0
  7 10  2  0  0  0  0
  7 11  1  0  0  0  0
  8  9  2  0  0  0  0
  8 12  1  0  0  0  0
  9 14  1  0  0  0  0
  9 16  1  0  0  0  0
 10 13  1  0  0  0  0
 11 15  2  0  0  0  0
 11 19  1  0  0  0  0
 12 18  2  0  0  0  0
 12 22  1  0  0  0  0
 13 17  2  0  0  0  0
 14 20  2  0  0  0  0
 15 17  1  0  0  0  0
 15 23  1  0  0  0  0
 18 20  1  0  0  0  0
 19 24  1  0  0  0  0
 19 25  1  0  0  0  0
 19 26  1  0  0  0  0
 20 27  1  0  0  0  0
 21 31  1  0  0  0  0
 21 32  1  0  0  0  0
 21 33  1  0  0  0  0
M  END
> <PUBCHEM_COMPOUND_CID>
24899916

> <PUBCHEM_COMPOUND_CANONICALIZED>
1

> <PUBCHEM_CACTVS_COMPLEXITY>
413

> <PUBCHEM_CACTVS_HBOND_ACCEPTOR>
6

> <PUBCHEM_CACTVS_HBOND_DONOR>
3

> <PUBCHEM_CACTVS_ROTATABLE_BOND>
1

> <PUBCHEM_CACTVS_SUBSKEYS>
AAADccBwOAAAAAAAAAAAAAAAAAAAAAAAAAA0YIAAAAAAAACRQAAAGgAACAAADASAmAIyDoAABgCIAiDSCAACCAAkIAAAiAEGiMgNJzaGNRqCe2Ol4BULuQeI7PzOoAABCAAYQABAAAIQADCAAAAAAAAAAA==

> <PUBCHEM_IUPAC_OPENEYE_NAME>
3,4,7-trihydroxy-9-methoxy-1-methyl-benzo[c]chromen-6-one

> <PUBCHEM_IUPAC_CAS_NAME>
3,4,7-trihydroxy-9-methoxy-1-methyl-6-benzo[c][1]benzopyranone

> <PUBCHEM_IUPAC_NAME_MARKUP>
3,4,7-trihydroxy-9-methoxy-1-methylbenzo[c]chromen-6-one

> <PUBCHEM_IUPAC_NAME>
3,4,7-trihydroxy-9-methoxy-1-methylbenzo[c]chromen-6-one

> <PUBCHEM_IUPAC_SYSTEMATIC_NAME>
9-methoxy-1-methyl-3,4,7-tris(oxidanyl)benzo[c]chromen-6-one

> <PUBCHEM_IUPAC_TRADITIONAL_NAME>
3,4,7-trihydroxy-9-methoxy-1-methyl-benzo[c]chromen-6-one

> <PUBCHEM_IUPAC_INCHI>
InChI=1S/C15H12O6/c1-6-3-10(17)13(18)14-11(6)8-4-7(20-2)5-9(16)12(8)15(19)21-14/h3-5,16-18H,1-2H3

> <PUBCHEM_IUPAC_INCHIKEY>
BVYAURIYXKOUPX-UHFFFAOYSA-N

> <PUBCHEM_XLOGP3_AA>
2.9

> <PUBCHEM_EXACT_MASS>
288.06338810

> <PUBCHEM_MOLECULAR_FORMULA>
C15H12O6

> <PUBCHEM_MOLECULAR_WEIGHT>
288.25

> <PUBCHEM_SMILES>
CC1=CC(=C(C2=C1C3=C(C(=CC(=C3)OC)O)C(=O)O2)O)O

> <PUBCHEM_OPENEYE_CAN_SMILES>
CC1=CC(=C(C2=C1C3=C(C(=CC(=C3)OC)O)C(=O)O2)O)O

> <PUBCHEM_OPENEYE_ISO_SMILES>
CC1=CC(=C(C2=C1C3=C(C(=CC(=C3)OC)O)C(=O)O2)O)O

> <PUBCHEM_CACTVS_TPSA>
96.2

> <PUBCHEM_MONOISOTOPIC_WEIGHT>
288.06338810

> <PUBCHEM_TOTAL_CHARGE>
0

> <PUBCHEM_HEAVY_ATOM_COUNT>
21

> <PUBCHEM_ATOM_DEF_STEREO_COUNT>
0

> <PUBCHEM_ATOM_UDEF_STEREO_COUNT>
0

> <PUBCHEM_BOND_DEF_STEREO_COUNT>
0

> <PUBCHEM_BOND_UDEF_STEREO_COUNT>
0

> <PUBCHEM_ISOTOPIC_ATOM_COUNT>
0

> <PUBCHEM_COMPONENT_COUNT>
1

> <PUBCHEM_CACTVS_TAUTO_COUNT>
-1

> <PUBCHEM_COORDINATE_TYPE>
1
5
255

> <PUBCHEM_BONDANNOTATIONS>
1  10  8
1  16  8
10  13  8
11  15  8
12  18  8
13  17  8
14  20  8
15  17  8
18  20  8
7  10  8
7  11  8
7  8  8
8  12  8
8  9  8
9  14  8
9  16  8

$$$$
