49830377
  -OEChem-03202502542D

 45 48  0     0  0  0  0  0  0999 V2000
    4.6783   -4.4464    0.0000 S   0  0  0  0  0  0  0  0  0  0  0  0
    4.3211   -1.1421    0.0000 O   0  0  0  0  0  0  0  0  0  0  0  0
    8.8564    1.5838    0.0000 O   0  0  0  0  0  0  0  0  0  0  0  0
    5.9674   -1.6802    0.0000 N   0  0  0  0  0  0  0  0  0  0  0  0
    7.2101    2.1219    0.0000 N   0  0  0  0  0  0  0  0  0  0  0  0
    2.8660   -4.6416    0.0000 N   0  0  0  0  0  0  0  0  0  0  0  0
    2.0000   -3.1416    0.0000 N   0  0  0  0  0  0  0  0  0  0  0  0
    8.4993    3.2787    0.0000 N   0  0  0  0  0  0  0  0  0  0  0  0
    2.8660   -1.6416    0.0000 N   0  0  0  0  0  0  0  0  0  0  0  0
    4.6783   -2.8369    0.0000 C   0  0  0  0  0  0  0  0  0  0  0  0
    3.7320   -3.1416    0.0000 C   0  0  0  0  0  0  0  0  0  0  0  0
    6.2781   -0.7296    0.0000 C   0  0  0  0  0  0  0  0  0  0  0  0
    3.7320   -4.1416    0.0000 C   0  0  0  0  0  0  0  0  0  0  0  0
    4.9889   -1.8864    0.0000 C   0  0  0  0  0  0  0  0  0  0  0  0
    5.2619   -3.6416    0.0000 C   0  0  0  0  0  0  0  0  0  0  0  0
    2.8660   -2.6416    0.0000 C   0  0  0  0  0  0  0  0  0  0  0  0
    6.8994    1.1714    0.0000 C   0  0  0  0  0  0  0  0  0  0  0  0
    5.6103    0.0147    0.0000 C   0  0  0  0  0  0  0  0  0  0  0  0
    7.2566   -0.5234    0.0000 C   0  0  0  0  0  0  0  0  0  0  0  0
    5.9209    0.9652    0.0000 C   0  0  0  0  0  0  0  0  0  0  0  0
    7.5673    0.4271    0.0000 C   0  0  0  0  0  0  0  0  0  0  0  0
    8.1886    2.3282    0.0000 C   0  0  0  0  0  0  0  0  0  0  0  0
    2.0000   -4.1416    0.0000 C   0  0  0  0  0  0  0  0  0  0  0  0
    9.4778    3.4849    0.0000 C   0  0  0  0  0  0  0  0  0  0  0  0
   10.1456    2.7406    0.0000 C   0  0  0  0  0  0  0  0  0  0  0  0
    9.7884    4.4354    0.0000 C   0  0  0  0  0  0  0  0  0  0  0  0
   11.1241    2.9468    0.0000 C   0  0  0  0  0  0  0  0  0  0  0  0
   10.7669    4.6416    0.0000 C   0  0  0  0  0  0  0  0  0  0  0  0
   11.4348    3.8973    0.0000 C   0  0  0  0  0  0  0  0  0  0  0  0
    6.3815   -2.1416    0.0000 H   0  0  0  0  0  0  0  0  0  0  0  0
    5.8819   -3.6416    0.0000 H   0  0  0  0  0  0  0  0  0  0  0  0
    5.0036   -0.1132    0.0000 H   0  0  0  0  0  0  0  0  0  0  0  0
    7.6707   -0.9849    0.0000 H   0  0  0  0  0  0  0  0  0  0  0  0
    5.5069    1.4267    0.0000 H   0  0  0  0  0  0  0  0  0  0  0  0
    8.1739    0.5550    0.0000 H   0  0  0  0  0  0  0  0  0  0  0  0
    6.7960    2.5834    0.0000 H   0  0  0  0  0  0  0  0  0  0  0  0
    1.4631   -4.4516    0.0000 H   0  0  0  0  0  0  0  0  0  0  0  0
    8.0852    3.7401    0.0000 H   0  0  0  0  0  0  0  0  0  0  0  0
    2.3291   -1.3316    0.0000 H   0  0  0  0  0  0  0  0  0  0  0  0
    3.4030   -1.3316    0.0000 H   0  0  0  0  0  0  0  0  0  0  0  0
    9.9530    2.1513    0.0000 H   0  0  0  0  0  0  0  0  0  0  0  0
    9.3744    4.8969    0.0000 H   0  0  0  0  0  0  0  0  0  0  0  0
   11.5382    2.4853    0.0000 H   0  0  0  0  0  0  0  0  0  0  0  0
   10.9595    5.2310    0.0000 H   0  0  0  0  0  0  0  0  0  0  0  0
   12.0414    4.0252    0.0000 H   0  0  0  0  0  0  0  0  0  0  0  0
  1 13  1  0  0  0  0
  1 15  1  0  0  0  0
  2 14  2  0  0  0  0
  3 22  2  0  0  0  0
  4 12  1  0  0  0  0
  4 14  1  0  0  0  0
  4 30  1  0  0  0  0
  5 17  1  0  0  0  0
  5 22  1  0  0  0  0
  5 36  1  0  0  0  0
  6 13  2  0  0  0  0
  6 23  1  0  0  0  0
  7 16  1  0  0  0  0
  7 23  2  0  0  0  0
  8 22  1  0  0  0  0
  8 24  1  0  0  0  0
  8 38  1  0  0  0  0
  9 16  1  0  0  0  0
  9 39  1  0  0  0  0
  9 40  1  0  0  0  0
 10 11  1  0  0  0  0
 10 14  1  0  0  0  0
 10 15  2  0  0  0  0
 11 13  1  0  0  0  0
 11 16  2  0  0  0  0
 12 18  2  0  0  0  0
 12 19  1  0  0  0  0
 15 31  1  0  0  0  0
 17 20  2  0  0  0  0
 17 21  1  0  0  0  0
 18 20  1  0  0  0  0
 18 32  1  0  0  0  0
 19 21  2  0  0  0  0
 19 33  1  0  0  0  0
 20 34  1  0  0  0  0
 21 35  1  0  0  0  0
 23 37  1  0  0  0  0
 24 25  2  0  0  0  0
 24 26  1  0  0  0  0
 25 27  1  0  0  0  0
 25 41  1  0  0  0  0
 26 28  2  0  0  0  0
 26 42  1  0  0  0  0
 27 29  2  0  0  0  0
 27 43  1  0  0  0  0
 28 29  1  0  0  0  0
 28 44  1  0  0  0  0
 29 45  1  0  0  0  0
M  END
> <PUBCHEM_COMPOUND_CID>
49830377

> <PUBCHEM_COMPOUND_CANONICALIZED>
1

> <PUBCHEM_CACTVS_COMPLEXITY>
579

> <PUBCHEM_CACTVS_HBOND_ACCEPTOR>
6

> <PUBCHEM_CACTVS_HBOND_DONOR>
4

> <PUBCHEM_CACTVS_ROTATABLE_BOND>
4

> <PUBCHEM_CACTVS_SUBSKEYS>
AAADceB7sABAAAAAAAAAAAAAAAAAASAAAAA8YIAAAAAAAFgB/AAAHgQQAAAADAiF2gS18dbIEAisAidzdACD0Kl1CrgJ2DEoZNiIKDLg3dGEJQxolALoyacUAAAIgACAAAAAAAAAAQAAAAAAAAAAAAAAAA==

> <PUBCHEM_IUPAC_OPENEYE_NAME>
4-amino-N-[4-(phenylcarbamoylamino)phenyl]thieno[2,3-d]pyrimidine-5-carboxamide

> <PUBCHEM_IUPAC_CAS_NAME>
4-amino-N-[4-[[anilino(oxo)methyl]amino]phenyl]-5-thieno[2,3-d]pyrimidinecarboxamide

> <PUBCHEM_IUPAC_NAME_MARKUP>
4-amino-<I>N</I>-[4-(phenylcarbamoylamino)phenyl]thieno[2,3-d]pyrimidine-5-carboxamide

> <PUBCHEM_IUPAC_NAME>
4-amino-N-[4-(phenylcarbamoylamino)phenyl]thieno[2,3-d]pyrimidine-5-carboxamide

> <PUBCHEM_IUPAC_SYSTEMATIC_NAME>
4-azanyl-N-[4-(phenylcarbamoylamino)phenyl]thieno[2,3-d]pyrimidine-5-carboxamide

> <PUBCHEM_IUPAC_TRADITIONAL_NAME>
4-amino-N-[4-(phenylcarbamoylamino)phenyl]thieno[2,3-d]pyrimidine-5-carboxamide

> <PUBCHEM_IUPAC_INCHI>
InChI=1S/C20H16N6O2S/c21-17-16-15(10-29-19(16)23-11-22-17)18(27)24-13-6-8-14(9-7-13)26-20(28)25-12-4-2-1-3-5-12/h1-11H,(H,24,27)(H2,21,22,23)(H2,25,26,28)

> <PUBCHEM_IUPAC_INCHIKEY>
VUHZDNOPEVGHEO-UHFFFAOYSA-N

> <PUBCHEM_XLOGP3_AA>
2.6

> <PUBCHEM_EXACT_MASS>
404.10554495

> <PUBCHEM_MOLECULAR_FORMULA>
C20H16N6O2S

> <PUBCHEM_MOLECULAR_WEIGHT>
404.4

> <PUBCHEM_SMILES>
C1=CC=C(C=C1)NC(=O)NC2=CC=C(C=C2)NC(=O)C3=CSC4=NC=NC(=C34)N

> <PUBCHEM_OPENEYE_CAN_SMILES>
C1=CC=C(C=C1)NC(=O)NC2=CC=C(C=C2)NC(=O)C3=CSC4=NC=NC(=C34)N

> <PUBCHEM_OPENEYE_ISO_SMILES>
C1=CC=C(C=C1)NC(=O)NC2=CC=C(C=C2)NC(=O)C3=CSC4=NC=NC(=C34)N

> <PUBCHEM_CACTVS_TPSA>
150

> <PUBCHEM_MONOISOTOPIC_WEIGHT>
404.10554495

> <PUBCHEM_TOTAL_CHARGE>
0

> <PUBCHEM_HEAVY_ATOM_COUNT>
29

> <PUBCHEM_ATOM_DEF_STEREO_COUNT>
0

> <PUBCHEM_ATOM_UDEF_STEREO_COUNT>
0

> <PUBCHEM_BOND_DEF_STEREO_COUNT>
0

> <PUBCHEM_BOND_UDEF_STEREO_COUNT>
0

> <PUBCHEM_ISOTOPIC_ATOM_COUNT>
0

> <PUBCHEM_COMPONENT_COUNT>
1

> <PUBCHEM_CACTVS_TAUTO_COUNT>
-1

> <PUBCHEM_COORDINATE_TYPE>
1
5
255

> <PUBCHEM_BONDANNOTATIONS>
1  13  8
1  15  8
10  11  8
10  15  8
11  13  8
11  16  8
12  18  8
12  19  8
17  20  8
17  21  8
18  20  8
19  21  8
24  25  8
24  26  8
25  27  8
26  28  8
27  29  8
28  29  8
6  13  8
6  23  8
7  16  8
7  23  8

$$$$
