49830685
  -OEChem-03202500472D

 38 40  0     0  0  0  0  0  0999 V2000
    9.3602    0.4013    0.0000 F   0  0  0  0  0  0  0  0  0  0  0  0
   10.7263    0.7673    0.0000 F   0  0  0  0  0  0  0  0  0  0  0  0
   10.3603    2.1334    0.0000 F   0  0  0  0  0  0  0  0  0  0  0  0
    7.2622   -0.2327    0.0000 O   0  0  0  0  0  0  0  0  0  0  0  0
    5.5301   -0.2327    0.0000 N   0  0  0  0  0  0  0  0  0  0  0  0
    5.5301   -3.2327    0.0000 N   0  0  0  0  0  0  0  0  0  0  0  0
    6.3961    1.2673    0.0000 N   0  0  0  0  0  0  0  0  0  0  0  0
    8.1282    1.2673    0.0000 N   0  0  0  0  0  0  0  0  0  0  0  0
    4.6641   -1.7327    0.0000 C   0  0  0  0  0  0  0  0  0  0  0  0
    5.5301   -1.2327    0.0000 C   0  0  0  0  0  0  0  0  0  0  0  0
    4.6641   -2.7327    0.0000 C   0  0  0  0  0  0  0  0  0  0  0  0
    3.7702   -1.1980    0.0000 C   0  0  0  0  0  0  0  0  0  0  0  0
    2.8641   -1.7118    0.0000 C   0  0  0  0  0  0  0  0  0  0  0  0
    3.7702   -3.2673    0.0000 C   0  0  0  0  0  0  0  0  0  0  0  0
    2.8641   -2.7535    0.0000 C   0  0  0  0  0  0  0  0  0  0  0  0
    6.3961   -1.7327    0.0000 C   0  0  0  0  0  0  0  0  0  0  0  0
    2.0000   -1.2085    0.0000 C   0  0  0  0  0  0  0  0  0  0  0  0
    6.3961   -2.7327    0.0000 C   0  0  0  0  0  0  0  0  0  0  0  0
    6.3961    0.2673    0.0000 C   0  0  0  0  0  0  0  0  0  0  0  0
    7.2622    1.7673    0.0000 C   0  0  0  0  0  0  0  0  0  0  0  0
    8.9942    1.7673    0.0000 C   0  0  0  0  0  0  0  0  0  0  0  0
    7.2622    2.7673    0.0000 C   0  0  0  0  0  0  0  0  0  0  0  0
    8.9942    2.7673    0.0000 C   0  0  0  0  0  0  0  0  0  0  0  0
    8.1282    3.2673    0.0000 C   0  0  0  0  0  0  0  0  0  0  0  0
    9.8602    1.2673    0.0000 C   0  0  0  0  0  0  0  0  0  0  0  0
    3.7773   -0.5780    0.0000 H   0  0  0  0  0  0  0  0  0  0  0  0
    3.7773   -3.8873    0.0000 H   0  0  0  0  0  0  0  0  0  0  0  0
    2.3284   -3.0656    0.0000 H   0  0  0  0  0  0  0  0  0  0  0  0
    6.9331   -1.4227    0.0000 H   0  0  0  0  0  0  0  0  0  0  0  0
    4.9932    0.0773    0.0000 H   0  0  0  0  0  0  0  0  0  0  0  0
    2.3121   -0.6728    0.0000 H   0  0  0  0  0  0  0  0  0  0  0  0
    1.4643   -0.8965    0.0000 H   0  0  0  0  0  0  0  0  0  0  0  0
    1.6879   -1.7443    0.0000 H   0  0  0  0  0  0  0  0  0  0  0  0
    6.9331   -3.0427    0.0000 H   0  0  0  0  0  0  0  0  0  0  0  0
    5.8592    1.5773    0.0000 H   0  0  0  0  0  0  0  0  0  0  0  0
    6.7252    3.0773    0.0000 H   0  0  0  0  0  0  0  0  0  0  0  0
    9.5312    3.0773    0.0000 H   0  0  0  0  0  0  0  0  0  0  0  0
    8.1282    3.8873    0.0000 H   0  0  0  0  0  0  0  0  0  0  0  0
  1 25  1  0  0  0  0
  2 25  1  0  0  0  0
  3 25  1  0  0  0  0
  4 19  2  0  0  0  0
  5 10  1  0  0  0  0
  5 19  1  0  0  0  0
  5 30  1  0  0  0  0
  6 11  2  0  0  0  0
  6 18  1  0  0  0  0
  7 19  1  0  0  0  0
  7 20  1  0  0  0  0
  7 35  1  0  0  0  0
  8 20  1  0  0  0  0
  8 21  2  0  0  0  0
  9 10  2  0  0  0  0
  9 11  1  0  0  0  0
  9 12  1  0  0  0  0
 10 16  1  0  0  0  0
 11 14  1  0  0  0  0
 12 13  2  0  0  0  0
 12 26  1  0  0  0  0
 13 15  1  0  0  0  0
 13 17  1  0  0  0  0
 14 15  2  0  0  0  0
 14 27  1  0  0  0  0
 15 28  1  0  0  0  0
 16 18  2  0  0  0  0
 16 29  1  0  0  0  0
 17 31  1  0  0  0  0
 17 32  1  0  0  0  0
 17 33  1  0  0  0  0
 18 34  1  0  0  0  0
 20 22  2  0  0  0  0
 21 23  1  0  0  0  0
 21 25  1  0  0  0  0
 22 24  1  0  0  0  0
 22 36  1  0  0  0  0
 23 24  2  0  0  0  0
 23 37  1  0  0  0  0
 24 38  1  0  0  0  0
M  END
> <PUBCHEM_COMPOUND_CID>
49830685

> <PUBCHEM_COMPOUND_CANONICALIZED>
1

> <PUBCHEM_CACTVS_COMPLEXITY>
473

> <PUBCHEM_CACTVS_HBOND_ACCEPTOR>
6

> <PUBCHEM_CACTVS_HBOND_DONOR>
2

> <PUBCHEM_CACTVS_ROTATABLE_BOND>
2

> <PUBCHEM_CACTVS_SUBSKEYS>
AAADccB7oYAAAAAAAAAAAAAAAAAAAAAAAAA8WIAAAAAAAACx/AAAHwAQAAAADAjBHhQ/8PLIEACoAzZndACCgCkxAiAJ2CA4ZJiIIOLA0dGEJAholQLIyCcQgMAOCAACAAACAAAQAAQAAAQAAAAAAAAAAA==

> <PUBCHEM_IUPAC_OPENEYE_NAME>
1-(6-methyl-4-quinolyl)-3-[6-(trifluoromethyl)-2-pyridyl]urea

> <PUBCHEM_IUPAC_CAS_NAME>
1-(6-methyl-4-quinolinyl)-3-[6-(trifluoromethyl)-2-pyridinyl]urea

> <PUBCHEM_IUPAC_NAME_MARKUP>
1-(6-methylquinolin-4-yl)-3-[6-(trifluoromethyl)pyridin-2-yl]urea

> <PUBCHEM_IUPAC_NAME>
1-(6-methylquinolin-4-yl)-3-[6-(trifluoromethyl)pyridin-2-yl]urea

> <PUBCHEM_IUPAC_SYSTEMATIC_NAME>
1-(6-methylquinolin-4-yl)-3-[6-(trifluoromethyl)pyridin-2-yl]urea

> <PUBCHEM_IUPAC_TRADITIONAL_NAME>
1-(6-methyl-4-quinolyl)-3-[6-(trifluoromethyl)-2-pyridyl]urea

> <PUBCHEM_IUPAC_INCHI>
InChI=1S/C17H13F3N4O/c1-10-5-6-12-11(9-10)13(7-8-21-12)22-16(25)24-15-4-2-3-14(23-15)17(18,19)20/h2-9H,1H3,(H2,21,22,23,24,25)

> <PUBCHEM_IUPAC_INCHIKEY>
YEKVTSRZMPLPFK-UHFFFAOYSA-N

> <PUBCHEM_XLOGP3_AA>
3.3

> <PUBCHEM_EXACT_MASS>
346.10414554

> <PUBCHEM_MOLECULAR_FORMULA>
C17H13F3N4O

> <PUBCHEM_MOLECULAR_WEIGHT>
346.31

> <PUBCHEM_SMILES>
CC1=CC2=C(C=CN=C2C=C1)NC(=O)NC3=CC=CC(=N3)C(F)(F)F

> <PUBCHEM_OPENEYE_CAN_SMILES>
CC1=CC2=C(C=CN=C2C=C1)NC(=O)NC3=CC=CC(=N3)C(F)(F)F

> <PUBCHEM_OPENEYE_ISO_SMILES>
CC1=CC2=C(C=CN=C2C=C1)NC(=O)NC3=CC=CC(=N3)C(F)(F)F

> <PUBCHEM_CACTVS_TPSA>
66.9

> <PUBCHEM_MONOISOTOPIC_WEIGHT>
346.10414554

> <PUBCHEM_TOTAL_CHARGE>
0

> <PUBCHEM_HEAVY_ATOM_COUNT>
25

> <PUBCHEM_ATOM_DEF_STEREO_COUNT>
0

> <PUBCHEM_ATOM_UDEF_STEREO_COUNT>
0

> <PUBCHEM_BOND_DEF_STEREO_COUNT>
0

> <PUBCHEM_BOND_UDEF_STEREO_COUNT>
0

> <PUBCHEM_ISOTOPIC_ATOM_COUNT>
0

> <PUBCHEM_COMPONENT_COUNT>
1

> <PUBCHEM_CACTVS_TAUTO_COUNT>
-1

> <PUBCHEM_COORDINATE_TYPE>
1
5
255

> <PUBCHEM_BONDANNOTATIONS>
10  16  8
11  14  8
12  13  8
13  15  8
14  15  8
16  18  8
20  22  8
21  23  8
22  24  8
23  24  8
6  11  8
6  18  8
8  20  8
8  21  8
9  10  8
9  11  8
9  12  8

$$$$
