46215815
  -OEChem-03202500302D

 68 72  0     1  0  0  0  0  0999 V2000
    6.8671   -1.8584    0.0000 O   0  0  0  0  0  0  0  0  0  0  0  0
    4.2690   -0.3584    0.0000 N   0  0  3  0  0  0  0  0  0  0  0  0
    6.0010   -3.3584    0.0000 N   0  0  0  0  0  0  0  0  0  0  0  0
    3.4030    1.1416    0.0000 N   0  0  0  0  0  0  0  0  0  0  0  0
    4.2690    2.6416    0.0000 N   0  0  0  0  0  0  0  0  0  0  0  0
    2.5369    2.6416    0.0000 N   0  0  0  0  0  0  0  0  0  0  0  0
    8.6793    2.3369    0.0000 N   0  0  0  0  0  0  0  0  0  0  0  0
    9.2629    3.1416    0.0000 N   0  0  0  0  0  0  0  0  0  0  0  0
    8.9900    4.8969    0.0000 N   0  0  0  0  0  0  0  0  0  0  0  0
    5.1350   -1.8584    0.0000 C   0  0  1  0  0  0  0  0  0  0  0  0
    4.2690   -2.3584    0.0000 C   0  0  0  0  0  0  0  0  0  0  0  0
    3.4030   -0.8584    0.0000 C   0  0  1  0  0  0  0  0  0  0  0  0
    3.4030   -1.8584    0.0000 C   0  0  0  0  0  0  0  0  0  0  0  0
    5.1350   -0.8584    0.0000 C   0  0  0  0  0  0  0  0  0  0  0  0
    6.8671   -3.8584    0.0000 C   0  0  0  0  0  0  0  0  0  0  0  0
    6.8671   -4.8584    0.0000 C   0  0  0  0  0  0  0  0  0  0  0  0
    7.7331   -3.3584    0.0000 C   0  0  0  0  0  0  0  0  0  0  0  0
    6.0010   -2.3584    0.0000 C   0  0  0  0  0  0  0  0  0  0  0  0
    7.7331   -5.3584    0.0000 C   0  0  0  0  0  0  0  0  0  0  0  0
    8.5991   -3.8584    0.0000 C   0  0  0  0  0  0  0  0  0  0  0  0
    8.5991   -4.8584    0.0000 C   0  0  0  0  0  0  0  0  0  0  0  0
    2.5369   -0.3584    0.0000 C   0  0  0  0  0  0  0  0  0  0  0  0
    4.2690    0.6416    0.0000 C   0  0  0  0  0  0  0  0  0  0  0  0
    5.1350    1.1416    0.0000 C   0  0  0  0  0  0  0  0  0  0  0  0
    5.1350    2.1416    0.0000 C   0  0  0  0  0  0  0  0  0  0  0  0
    3.4030    2.1416    0.0000 C   0  0  0  0  0  0  0  0  0  0  0  0
    6.0010    2.6416    0.0000 C   0  0  0  0  0  0  0  0  0  0  0  0
    6.8671    2.1416    0.0000 C   0  0  0  0  0  0  0  0  0  0  0  0
    6.0010    3.6416    0.0000 C   0  0  0  0  0  0  0  0  0  0  0  0
    7.7331    2.6416    0.0000 C   0  0  0  0  0  0  0  0  0  0  0  0
    7.7331    3.6416    0.0000 C   0  0  0  0  0  0  0  0  0  0  0  0
    6.8671    4.1416    0.0000 C   0  0  0  0  0  0  0  0  0  0  0  0
    2.5369    3.6416    0.0000 C   0  0  0  0  0  0  0  0  0  0  0  0
    8.6793    3.9464    0.0000 C   0  0  0  0  0  0  0  0  0  0  0  0
    5.1350   -2.4784    0.0000 H   0  0  0  0  0  0  0  0  0  0  0  0
    3.8705   -2.8333    0.0000 H   0  0  0  0  0  0  0  0  0  0  0  0
    4.6675   -2.8333    0.0000 H   0  0  0  0  0  0  0  0  0  0  0  0
    3.4030   -0.2384    0.0000 H   0  0  0  0  0  0  0  0  0  0  0  0
    2.7924   -1.7507    0.0000 H   0  0  0  0  0  0  0  0  0  0  0  0
    3.1909   -2.4410    0.0000 H   0  0  0  0  0  0  0  0  0  0  0  0
    5.7456   -0.9660    0.0000 H   0  0  0  0  0  0  0  0  0  0  0  0
    5.3471   -0.2758    0.0000 H   0  0  0  0  0  0  0  0  0  0  0  0
    6.3301   -4.1684    0.0000 H   0  0  0  0  0  0  0  0  0  0  0  0
    6.2565   -4.7507    0.0000 H   0  0  0  0  0  0  0  0  0  0  0  0
    6.6550   -5.4410    0.0000 H   0  0  0  0  0  0  0  0  0  0  0  0
    8.1316   -2.8834    0.0000 H   0  0  0  0  0  0  0  0  0  0  0  0
    7.3346   -2.8834    0.0000 H   0  0  0  0  0  0  0  0  0  0  0  0
    7.3346   -5.8333    0.0000 H   0  0  0  0  0  0  0  0  0  0  0  0
    8.1316   -5.8333    0.0000 H   0  0  0  0  0  0  0  0  0  0  0  0
    9.2097   -3.9660    0.0000 H   0  0  0  0  0  0  0  0  0  0  0  0
    8.8112   -3.2758    0.0000 H   0  0  0  0  0  0  0  0  0  0  0  0
    8.8112   -5.4410    0.0000 H   0  0  0  0  0  0  0  0  0  0  0  0
    9.2097   -4.7507    0.0000 H   0  0  0  0  0  0  0  0  0  0  0  0
    5.4641   -3.6684    0.0000 H   0  0  0  0  0  0  0  0  0  0  0  0
    2.8469    0.1786    0.0000 H   0  0  0  0  0  0  0  0  0  0  0  0
    2.0000   -0.0484    0.0000 H   0  0  0  0  0  0  0  0  0  0  0  0
    2.2269   -0.8953    0.0000 H   0  0  0  0  0  0  0  0  0  0  0  0
    5.6720    0.8316    0.0000 H   0  0  0  0  0  0  0  0  0  0  0  0
    2.0000    2.3316    0.0000 H   0  0  0  0  0  0  0  0  0  0  0  0
    6.8671    1.5216    0.0000 H   0  0  0  0  0  0  0  0  0  0  0  0
    5.4641    3.9516    0.0000 H   0  0  0  0  0  0  0  0  0  0  0  0
    6.8671    4.7616    0.0000 H   0  0  0  0  0  0  0  0  0  0  0  0
    3.1569    3.6416    0.0000 H   0  0  0  0  0  0  0  0  0  0  0  0
    2.5369    4.2616    0.0000 H   0  0  0  0  0  0  0  0  0  0  0  0
    1.9169    3.6416    0.0000 H   0  0  0  0  0  0  0  0  0  0  0  0
    8.8719    1.7476    0.0000 H   0  0  0  0  0  0  0  0  0  0  0  0
    9.5966    5.0248    0.0000 H   0  0  0  0  0  0  0  0  0  0  0  0
    8.5759    5.3584    0.0000 H   0  0  0  0  0  0  0  0  0  0  0  0
  1 18  2  0  0  0  0
  2 12  1  0  0  0  0
  2 14  1  0  0  0  0
  2 23  1  0  0  0  0
  3 15  1  0  0  0  0
  3 18  1  0  0  0  0
  3 54  1  0  0  0  0
  4 23  2  0  0  0  0
  4 26  1  0  0  0  0
  5 25  1  0  0  0  0
  5 26  2  0  0  0  0
  6 26  1  0  0  0  0
  6 33  1  0  0  0  0
  6 59  1  0  0  0  0
  7  8  1  0  0  0  0
  7 30  1  0  0  0  0
  7 66  1  0  0  0  0
  8 34  2  0  0  0  0
  9 34  1  0  0  0  0
  9 67  1  0  0  0  0
  9 68  1  0  0  0  0
 10 11  1  0  0  0  0
 10 14  1  0  0  0  0
 10 18  1  1  0  0  0
 10 35  1  0  0  0  0
 11 13  1  0  0  0  0
 11 36  1  0  0  0  0
 11 37  1  0  0  0  0
 12 13  1  0  0  0  0
 12 22  1  1  0  0  0
 12 38  1  0  0  0  0
 13 39  1  0  0  0  0
 13 40  1  0  0  0  0
 14 41  1  0  0  0  0
 14 42  1  0  0  0  0
 15 16  1  0  0  0  0
 15 17  1  0  0  0  0
 15 43  1  0  0  0  0
 16 19  1  0  0  0  0
 16 44  1  0  0  0  0
 16 45  1  0  0  0  0
 17 20  1  0  0  0  0
 17 46  1  0  0  0  0
 17 47  1  0  0  0  0
 19 21  1  0  0  0  0
 19 48  1  0  0  0  0
 19 49  1  0  0  0  0
 20 21  1  0  0  0  0
 20 50  1  0  0  0  0
 20 51  1  0  0  0  0
 21 52  1  0  0  0  0
 21 53  1  0  0  0  0
 22 55  1  0  0  0  0
 22 56  1  0  0  0  0
 22 57  1  0  0  0  0
 23 24  1  0  0  0  0
 24 25  2  0  0  0  0
 24 58  1  0  0  0  0
 25 27  1  0  0  0  0
 27 28  2  0  0  0  0
 27 29  1  0  0  0  0
 28 30  1  0  0  0  0
 28 60  1  0  0  0  0
 29 32  2  0  0  0  0
 29 61  1  0  0  0  0
 30 31  2  0  0  0  0
 31 32  1  0  0  0  0
 31 34  1  0  0  0  0
 32 62  1  0  0  0  0
 33 63  1  0  0  0  0
 33 64  1  0  0  0  0
 33 65  1  0  0  0  0
M  END
> <PUBCHEM_COMPOUND_CID>
46215815

> <PUBCHEM_COMPOUND_CANONICALIZED>
1

> <PUBCHEM_CACTVS_COMPLEXITY>
688

> <PUBCHEM_CACTVS_HBOND_ACCEPTOR>
7

> <PUBCHEM_CACTVS_HBOND_DONOR>
4

> <PUBCHEM_CACTVS_ROTATABLE_BOND>
5

> <PUBCHEM_CACTVS_SUBSKEYS>
AAADcfB74AAAAAAAAAAAAAAAAAAAAWAAAAA8eIEAAAAAAFgB/AAAHgAYAAAADSjBngQz8PfrEACqAydydACShCshAqAduaE4ZJiIKLrA2dGEpAh4ngLIyCcYicAeQAAAQAACAACAAACAAAQAAAAAAAAAAA==

> <PUBCHEM_IUPAC_OPENEYE_NAME>
(3S,6R)-1-[6-(3-amino-1H-indazol-6-yl)-2-(methylamino)pyrimidin-4-yl]-N-cyclohexyl-6-methyl-piperidine-3-carboxamide

> <PUBCHEM_IUPAC_CAS_NAME>
(3S,6R)-1-[6-(3-amino-1H-indazol-6-yl)-2-(methylamino)-4-pyrimidinyl]-N-cyclohexyl-6-methyl-3-piperidinecarboxamide

> <PUBCHEM_IUPAC_NAME_MARKUP>
(3<I>S</I>,6<I>R</I>)-1-[6-(3-amino-1<I>H</I>-indazol-6-yl)-2-(methylamino)pyrimidin-4-yl]-<I>N</I>-cyclohexyl-6-methylpiperidine-3-carboxamide

> <PUBCHEM_IUPAC_NAME>
(3S,6R)-1-[6-(3-amino-1H-indazol-6-yl)-2-(methylamino)pyrimidin-4-yl]-N-cyclohexyl-6-methylpiperidine-3-carboxamide

> <PUBCHEM_IUPAC_SYSTEMATIC_NAME>
(3S,6R)-1-[6-(3-azanyl-1H-indazol-6-yl)-2-(methylamino)pyrimidin-4-yl]-N-cyclohexyl-6-methyl-piperidine-3-carboxamide

> <PUBCHEM_IUPAC_TRADITIONAL_NAME>
(3S,6R)-1-[6-(3-amino-1H-indazol-6-yl)-2-(methylamino)pyrimidin-4-yl]-N-cyclohexyl-6-methyl-nipecotamide

> <PUBCHEM_IUPAC_INCHI>
InChI=1S/C25H34N8O/c1-15-8-9-17(24(34)28-18-6-4-3-5-7-18)14-33(15)22-13-20(29-25(27-2)30-22)16-10-11-19-21(12-16)31-32-23(19)26/h10-13,15,17-18H,3-9,14H2,1-2H3,(H,28,34)(H3,26,31,32)(H,27,29,30)/t15-,17+/m1/s1

> <PUBCHEM_IUPAC_INCHIKEY>
QLPHOXTXAKOFMU-WBVHZDCISA-N

> <PUBCHEM_XLOGP3_AA>
3.9

> <PUBCHEM_EXACT_MASS>
462.28555774

> <PUBCHEM_MOLECULAR_FORMULA>
C25H34N8O

> <PUBCHEM_MOLECULAR_WEIGHT>
462.6

> <PUBCHEM_SMILES>
C[C@@H]1CC[C@@H](CN1C2=NC(=NC(=C2)C3=CC4=C(C=C3)C(=NN4)N)NC)C(=O)NC5CCCCC5

> <PUBCHEM_OPENEYE_CAN_SMILES>
CC1CCC(CN1C2=NC(=NC(=C2)C3=CC4=C(C=C3)C(=NN4)N)NC)C(=O)NC5CCCCC5

> <PUBCHEM_OPENEYE_ISO_SMILES>
C[C@@H]1CC[C@@H](CN1C2=NC(=NC(=C2)C3=CC4=C(C=C3)C(=NN4)N)NC)C(=O)NC5CCCCC5

> <PUBCHEM_CACTVS_TPSA>
125

> <PUBCHEM_MONOISOTOPIC_WEIGHT>
462.28555774

> <PUBCHEM_TOTAL_CHARGE>
0

> <PUBCHEM_HEAVY_ATOM_COUNT>
34

> <PUBCHEM_ATOM_DEF_STEREO_COUNT>
2

> <PUBCHEM_ATOM_UDEF_STEREO_COUNT>
0

> <PUBCHEM_BOND_DEF_STEREO_COUNT>
0

> <PUBCHEM_BOND_UDEF_STEREO_COUNT>
0

> <PUBCHEM_ISOTOPIC_ATOM_COUNT>
0

> <PUBCHEM_COMPONENT_COUNT>
1

> <PUBCHEM_CACTVS_TAUTO_COUNT>
-1

> <PUBCHEM_COORDINATE_TYPE>
1
5
255

> <PUBCHEM_BONDANNOTATIONS>
10  18  5
12  22  5
23  24  8
24  25  8
27  28  8
27  29  8
28  30  8
29  32  8
30  31  8
31  32  8
31  34  8
4  23  8
4  26  8
5  25  8
5  26  8
7  30  8
7  8  8
8  34  8

$$$$
