10409707
  -OEChem-03202506352D

 43 46  0     0  0  0  0  0  0999 V2000
    4.4026   -0.0062    0.0000 S   0  0  0  0  0  0  0  0  0  0  0  0
    7.8678    3.5715    0.0000 F   0  0  0  0  0  0  0  0  0  0  0  0
    6.5467    3.0669    0.0000 F   0  0  0  0  0  0  0  0  0  0  0  0
    7.0512    1.7458    0.0000 F   0  0  0  0  0  0  0  0  0  0  0  0
    6.7523    1.0775    0.0000 O   0  0  0  0  0  0  0  0  0  0  0  0
    5.3548    2.4954    0.0000 O   0  0  0  0  0  0  0  0  0  0  0  0
    4.6783   -1.7667    0.0000 N   0  0  0  0  0  0  0  0  0  0  0  0
    4.6783   -3.3762    0.0000 N   0  0  0  0  0  0  0  0  0  0  0  0
    3.7066    1.9630    0.0000 N   0  0  0  0  0  0  0  0  0  0  0  0
    3.7320   -2.0715    0.0000 C   0  0  0  0  0  0  0  0  0  0  0  0
    4.9889   -0.8162    0.0000 C   0  0  0  0  0  0  0  0  0  0  0  0
    5.9422    0.4912    0.0000 C   0  0  0  0  0  0  0  0  0  0  0  0
    3.7320   -3.0715    0.0000 C   0  0  0  0  0  0  0  0  0  0  0  0
    5.9405   -0.5088    0.0000 C   0  0  0  0  0  0  0  0  0  0  0  0
    8.4752    1.2556    0.0000 C   0  0  0  0  0  0  0  0  0  0  0  0
    7.6651    0.6692    0.0000 C   0  0  0  0  0  0  0  0  0  0  0  0
    4.9917    0.8018    0.0000 C   0  0  0  0  0  0  0  0  0  0  0  0
    5.2619   -2.5715    0.0000 C   0  0  0  0  0  0  0  0  0  0  0  0
    8.3724    2.2503    0.0000 C   0  0  0  0  0  0  0  0  0  0  0  0
    2.8660   -1.5715    0.0000 C   0  0  0  0  0  0  0  0  0  0  0  0
    2.8660   -3.5715    0.0000 C   0  0  0  0  0  0  0  0  0  0  0  0
    9.3880    0.8473    0.0000 C   0  0  0  0  0  0  0  0  0  0  0  0
    2.0000   -2.0715    0.0000 C   0  0  0  0  0  0  0  0  0  0  0  0
    2.0000   -3.0715    0.0000 C   0  0  0  0  0  0  0  0  0  0  0  0
    9.1824    2.8367    0.0000 C   0  0  0  0  0  0  0  0  0  0  0  0
    7.4595    2.6586    0.0000 C   0  0  0  0  0  0  0  0  0  0  0  0
   10.1980    1.4337    0.0000 C   0  0  0  0  0  0  0  0  0  0  0  0
    4.6844    1.7534    0.0000 C   0  0  0  0  0  0  0  0  0  0  0  0
   10.0952    2.4284    0.0000 C   0  0  0  0  0  0  0  0  0  0  0  0
    6.4415   -0.8741    0.0000 H   0  0  0  0  0  0  0  0  0  0  0  0
    7.3175    0.1558    0.0000 H   0  0  0  0  0  0  0  0  0  0  0  0
    8.1104    0.2378    0.0000 H   0  0  0  0  0  0  0  0  0  0  0  0
    5.8819   -2.5715    0.0000 H   0  0  0  0  0  0  0  0  0  0  0  0
    2.8660   -0.9515    0.0000 H   0  0  0  0  0  0  0  0  0  0  0  0
    2.8660   -4.1915    0.0000 H   0  0  0  0  0  0  0  0  0  0  0  0
    9.4517    0.2306    0.0000 H   0  0  0  0  0  0  0  0  0  0  0  0
    1.4631   -1.7615    0.0000 H   0  0  0  0  0  0  0  0  0  0  0  0
    9.1186    3.4534    0.0000 H   0  0  0  0  0  0  0  0  0  0  0  0
    1.4631   -3.3815    0.0000 H   0  0  0  0  0  0  0  0  0  0  0  0
   10.7640    1.1805    0.0000 H   0  0  0  0  0  0  0  0  0  0  0  0
   10.5974    2.7919    0.0000 H   0  0  0  0  0  0  0  0  0  0  0  0
    3.5160    2.5530    0.0000 H   0  0  0  0  0  0  0  0  0  0  0  0
    3.2909    1.5030    0.0000 H   0  0  0  0  0  0  0  0  0  0  0  0
  1 11  1  0  0  0  0
  1 17  1  0  0  0  0
  2 26  1  0  0  0  0
  3 26  1  0  0  0  0
  4 26  1  0  0  0  0
  5 12  1  0  0  0  0
  5 16  1  0  0  0  0
  6 28  2  0  0  0  0
  7 10  1  0  0  0  0
  7 11  1  0  0  0  0
  7 18  1  0  0  0  0
  8 13  1  0  0  0  0
  8 18  2  0  0  0  0
  9 28  1  0  0  0  0
  9 42  1  0  0  0  0
  9 43  1  0  0  0  0
 10 13  1  0  0  0  0
 10 20  2  0  0  0  0
 11 14  2  0  0  0  0
 12 14  1  0  0  0  0
 12 17  2  0  0  0  0
 13 21  2  0  0  0  0
 14 30  1  0  0  0  0
 15 16  1  0  0  0  0
 15 19  1  0  0  0  0
 15 22  2  0  0  0  0
 16 31  1  0  0  0  0
 16 32  1  0  0  0  0
 17 28  1  0  0  0  0
 18 33  1  0  0  0  0
 19 25  2  0  0  0  0
 19 26  1  0  0  0  0
 20 23  1  0  0  0  0
 20 34  1  0  0  0  0
 21 24  1  0  0  0  0
 21 35  1  0  0  0  0
 22 27  1  0  0  0  0
 22 36  1  0  0  0  0
 23 24  2  0  0  0  0
 23 37  1  0  0  0  0
 24 39  1  0  0  0  0
 25 29  1  0  0  0  0
 25 38  1  0  0  0  0
 27 29  2  0  0  0  0
 27 40  1  0  0  0  0
 29 41  1  0  0  0  0
M  END
> <PUBCHEM_COMPOUND_CID>
10409707

> <PUBCHEM_COMPOUND_CANONICALIZED>
1

> <PUBCHEM_CACTVS_COMPLEXITY>
594

> <PUBCHEM_CACTVS_HBOND_ACCEPTOR>
7

> <PUBCHEM_CACTVS_HBOND_DONOR>
1

> <PUBCHEM_CACTVS_ROTATABLE_BOND>
5

> <PUBCHEM_CACTVS_SUBSKEYS>
AAADccB7MYBAAAAAAAAAAAAAAAAAAWJAAAAwYAAAAAAAAFgB/AAAHwQQAAAADAyh3hY117dMFAisAyVzdACDiK11OrhJ2Ds+fNiMbvbkvZmWOWju4Avo6SeYwaAOgAAAAAAQACAAAAAAACAAQAAAAAAAAA==

> <PUBCHEM_IUPAC_OPENEYE_NAME>
5-(benzimidazol-1-yl)-3-[[2-(trifluoromethyl)phenyl]methoxy]thiophene-2-carboxamide

> <PUBCHEM_IUPAC_CAS_NAME>
5-(1-benzimidazolyl)-3-[[2-(trifluoromethyl)phenyl]methoxy]-2-thiophenecarboxamide

> <PUBCHEM_IUPAC_NAME_MARKUP>
5-(benzimidazol-1-yl)-3-[[2-(trifluoromethyl)phenyl]methoxy]thiophene-2-carboxamide

> <PUBCHEM_IUPAC_NAME>
5-(benzimidazol-1-yl)-3-[[2-(trifluoromethyl)phenyl]methoxy]thiophene-2-carboxamide

> <PUBCHEM_IUPAC_SYSTEMATIC_NAME>
5-(benzimidazol-1-yl)-3-[[2-(trifluoromethyl)phenyl]methoxy]thiophene-2-carboxamide

> <PUBCHEM_IUPAC_TRADITIONAL_NAME>
5-(benzimidazol-1-yl)-3-[2-(trifluoromethyl)benzyl]oxy-thiophene-2-carboxamide

> <PUBCHEM_IUPAC_INCHI>
InChI=1S/C20H14F3N3O2S/c21-20(22,23)13-6-2-1-5-12(13)10-28-16-9-17(29-18(16)19(24)27)26-11-25-14-7-3-4-8-15(14)26/h1-9,11H,10H2,(H2,24,27)

> <PUBCHEM_IUPAC_INCHIKEY>
ITAJXWHXKVYGCF-UHFFFAOYSA-N

> <PUBCHEM_XLOGP3_AA>
4.7

> <PUBCHEM_EXACT_MASS>
417.07588236

> <PUBCHEM_MOLECULAR_FORMULA>
C20H14F3N3O2S

> <PUBCHEM_MOLECULAR_WEIGHT>
417.4

> <PUBCHEM_SMILES>
C1=CC=C(C(=C1)COC2=C(SC(=C2)N3C=NC4=CC=CC=C43)C(=O)N)C(F)(F)F

> <PUBCHEM_OPENEYE_CAN_SMILES>
C1=CC=C(C(=C1)COC2=C(SC(=C2)N3C=NC4=CC=CC=C43)C(=O)N)C(F)(F)F

> <PUBCHEM_OPENEYE_ISO_SMILES>
C1=CC=C(C(=C1)COC2=C(SC(=C2)N3C=NC4=CC=CC=C43)C(=O)N)C(F)(F)F

> <PUBCHEM_CACTVS_TPSA>
98.4

> <PUBCHEM_MONOISOTOPIC_WEIGHT>
417.07588236

> <PUBCHEM_TOTAL_CHARGE>
0

> <PUBCHEM_HEAVY_ATOM_COUNT>
29

> <PUBCHEM_ATOM_DEF_STEREO_COUNT>
0

> <PUBCHEM_ATOM_UDEF_STEREO_COUNT>
0

> <PUBCHEM_BOND_DEF_STEREO_COUNT>
0

> <PUBCHEM_BOND_UDEF_STEREO_COUNT>
0

> <PUBCHEM_ISOTOPIC_ATOM_COUNT>
0

> <PUBCHEM_COMPONENT_COUNT>
1

> <PUBCHEM_CACTVS_TAUTO_COUNT>
-1

> <PUBCHEM_COORDINATE_TYPE>
1
5
255

> <PUBCHEM_BONDANNOTATIONS>
1  11  8
1  17  8
10  13  8
10  20  8
11  14  8
12  14  8
12  17  8
13  21  8
15  19  8
15  22  8
19  25  8
20  23  8
21  24  8
22  27  8
23  24  8
25  29  8
27  29  8
7  10  8
7  18  8
8  13  8
8  18  8

$$$$
