49831040
  -OEChem-03202501062D

 15 16  0     0  0  0  0  0  0999 V2000
    2.8660    1.3916    0.0000 Cl  0  0  0  0  0  0  0  0  0  0  0  0
    3.7320   -0.1084    0.0000 N   0  0  0  0  0  0  0  0  0  0  0  0
    4.6783   -1.4131    0.0000 N   0  0  0  0  0  0  0  0  0  0  0  0
    5.2619   -0.6084    0.0000 N   0  0  0  0  0  0  0  0  0  0  0  0
    2.0000   -1.1084    0.0000 N   0  0  0  0  0  0  0  0  0  0  0  0
    4.9889    1.1469    0.0000 N   0  0  0  0  0  0  0  0  0  0  0  0
    3.7320   -1.1084    0.0000 C   0  0  0  0  0  0  0  0  0  0  0  0
    4.6783    0.1964    0.0000 C   0  0  0  0  0  0  0  0  0  0  0  0
    2.8660    0.3916    0.0000 C   0  0  0  0  0  0  0  0  0  0  0  0
    2.8660   -1.6084    0.0000 C   0  0  0  0  0  0  0  0  0  0  0  0
    2.0000   -0.1084    0.0000 C   0  0  0  0  0  0  0  0  0  0  0  0
    2.8660   -2.2284    0.0000 H   0  0  0  0  0  0  0  0  0  0  0  0
    1.4631    0.2016    0.0000 H   0  0  0  0  0  0  0  0  0  0  0  0
    5.5956    1.2748    0.0000 H   0  0  0  0  0  0  0  0  0  0  0  0
    4.5749    1.6084    0.0000 H   0  0  0  0  0  0  0  0  0  0  0  0
  1  9  1  0  0  0  0
  2  7  1  0  0  0  0
  2  8  1  0  0  0  0
  2  9  1  0  0  0  0
  3  4  1  0  0  0  0
  3  7  2  0  0  0  0
  4  8  2  0  0  0  0
  5 10  2  0  0  0  0
  5 11  1  0  0  0  0
  6  8  1  0  0  0  0
  6 14  1  0  0  0  0
  6 15  1  0  0  0  0
  7 10  1  0  0  0  0
  9 11  2  0  0  0  0
 10 12  1  0  0  0  0
 11 13  1  0  0  0  0
M  END
> <PUBCHEM_COMPOUND_CID>
49831040

> <PUBCHEM_COMPOUND_CANONICALIZED>
1

> <PUBCHEM_CACTVS_COMPLEXITY>
154

> <PUBCHEM_CACTVS_HBOND_ACCEPTOR>
4

> <PUBCHEM_CACTVS_HBOND_DONOR>
1

> <PUBCHEM_CACTVS_ROTATABLE_BOND>
0

> <PUBCHEM_CACTVS_SUBSKEYS>
AAADcYBjgAAEAAAAAAAAAAAAAAAAAWAAAAAsAAAAAAAAAFgB4AAAHAIYAAAAAALBAyQtsB9MGACiABInZAAQhC8RE6AVQAAYMACASEAACABQgAAQCAKAACAAAAAAAAAAAAAAAAAAAAAAAAAAAAAAAAAAAA==

> <PUBCHEM_IUPAC_OPENEYE_NAME>
5-chloro-[1,2,4]triazolo[4,3-a]pyrazin-3-amine

> <PUBCHEM_IUPAC_CAS_NAME>
5-chloro-[1,2,4]triazolo[4,3-a]pyrazin-3-amine

> <PUBCHEM_IUPAC_NAME_MARKUP>
5-chloro-[1,2,4]triazolo[4,3-a]pyrazin-3-amine

> <PUBCHEM_IUPAC_NAME>
5-chloro-[1,2,4]triazolo[4,3-a]pyrazin-3-amine

> <PUBCHEM_IUPAC_SYSTEMATIC_NAME>
5-chloranyl-[1,2,4]triazolo[4,3-a]pyrazin-3-amine

> <PUBCHEM_IUPAC_TRADITIONAL_NAME>
(5-chloro-[1,2,4]triazolo[4,3-a]pyrazin-3-yl)amine

> <PUBCHEM_IUPAC_INCHI>
InChI=1S/C5H4ClN5/c6-3-1-8-2-4-9-10-5(7)11(3)4/h1-2H,(H2,7,10)

> <PUBCHEM_IUPAC_INCHIKEY>
BGLCATULDGAIDO-UHFFFAOYSA-N

> <PUBCHEM_XLOGP3_AA>
0.7

> <PUBCHEM_EXACT_MASS>
169.0155228

> <PUBCHEM_MOLECULAR_FORMULA>
C5H4ClN5

> <PUBCHEM_MOLECULAR_WEIGHT>
169.57

> <PUBCHEM_SMILES>
C1=C(N2C(=NN=C2N)C=N1)Cl

> <PUBCHEM_OPENEYE_CAN_SMILES>
C1=C(N2C(=NN=C2N)C=N1)Cl

> <PUBCHEM_OPENEYE_ISO_SMILES>
C1=C(N2C(=NN=C2N)C=N1)Cl

> <PUBCHEM_CACTVS_TPSA>
69.1

> <PUBCHEM_MONOISOTOPIC_WEIGHT>
169.0155228

> <PUBCHEM_TOTAL_CHARGE>
0

> <PUBCHEM_HEAVY_ATOM_COUNT>
11

> <PUBCHEM_ATOM_DEF_STEREO_COUNT>
0

> <PUBCHEM_ATOM_UDEF_STEREO_COUNT>
0

> <PUBCHEM_BOND_DEF_STEREO_COUNT>
0

> <PUBCHEM_BOND_UDEF_STEREO_COUNT>
0

> <PUBCHEM_ISOTOPIC_ATOM_COUNT>
0

> <PUBCHEM_COMPONENT_COUNT>
1

> <PUBCHEM_CACTVS_TAUTO_COUNT>
-1

> <PUBCHEM_COORDINATE_TYPE>
1
5
255

> <PUBCHEM_BONDANNOTATIONS>
2  7  8
2  8  8
2  9  8
3  4  8
3  7  8
4  8  8
5  10  8
5  11  8
7  10  8
9  11  8

$$$$
