24203040
  -OEChem-03202501532D

 21 23  0     0  0  0  0  0  0999 V2000
    4.7273    1.3408    0.0000 S   0  0  0  0  0  0  0  0  0  0  0  0
    3.5424   -0.9828    0.0000 N   0  0  0  0  0  0  0  0  0  0  0  0
    6.5518    0.9852    0.0000 N   0  0  0  0  0  0  0  0  0  0  0  0
    6.9328   -0.7741    0.0000 N   0  0  0  0  0  0  0  0  0  0  0  0
    2.2000    0.2166    0.0000 N   0  0  0  0  0  0  0  0  0  0  0  0
    5.5923   -1.9302    0.0000 N   0  0  0  0  0  0  0  0  0  0  0  0
    2.6049    1.9398    0.0000 N   0  0  0  0  0  0  0  0  0  0  0  0
    5.2273   -0.1981    0.0000 C   0  0  0  0  0  0  0  0  0  0  0  0
    4.2273   -0.1981    0.0000 C   0  0  0  0  0  0  0  0  0  0  0  0
    3.9183    0.7530    0.0000 C   0  0  0  0  0  0  0  0  0  0  0  0
    5.5364    0.7530    0.0000 C   0  0  0  0  0  0  0  0  0  0  0  0
    5.9123   -0.9828    0.0000 C   0  0  0  0  0  0  0  0  0  0  0  0
    2.9029    0.9852    0.0000 C   0  0  0  0  0  0  0  0  0  0  0  0
    2.5219   -0.7741    0.0000 C   0  0  0  0  0  0  0  0  0  0  0  0
    7.2547    0.2166    0.0000 C   0  0  0  0  0  0  0  0  0  0  0  0
    2.1088   -1.2364    0.0000 H   0  0  0  0  0  0  0  0  0  0  0  0
    7.8606    0.3478    0.0000 H   0  0  0  0  0  0  0  0  0  0  0  0
    6.0018   -2.3957    0.0000 H   0  0  0  0  0  0  0  0  0  0  0  0
    4.9844   -2.0521    0.0000 H   0  0  0  0  0  0  0  0  0  0  0  0
    2.0000    2.0757    0.0000 H   0  0  0  0  0  0  0  0  0  0  0  0
    3.0251    2.3957    0.0000 H   0  0  0  0  0  0  0  0  0  0  0  0
  1 10  1  0  0  0  0
  1 11  1  0  0  0  0
  2  9  1  0  0  0  0
  2 14  2  0  0  0  0
  3 11  2  0  0  0  0
  3 15  1  0  0  0  0
  4 12  1  0  0  0  0
  4 15  2  0  0  0  0
  5 13  2  0  0  0  0
  5 14  1  0  0  0  0
  6 12  1  0  0  0  0
  6 18  1  0  0  0  0
  6 19  1  0  0  0  0
  7 13  1  0  0  0  0
  7 20  1  0  0  0  0
  7 21  1  0  0  0  0
  8  9  1  0  0  0  0
  8 11  1  0  0  0  0
  8 12  2  0  0  0  0
  9 10  2  0  0  0  0
 10 13  1  0  0  0  0
 14 16  1  0  0  0  0
 15 17  1  0  0  0  0
M  END
> <PUBCHEM_COMPOUND_CID>
24203040

> <PUBCHEM_COMPOUND_CANONICALIZED>
1

> <PUBCHEM_CACTVS_COMPLEXITY>
251

> <PUBCHEM_CACTVS_HBOND_ACCEPTOR>
7

> <PUBCHEM_CACTVS_HBOND_DONOR>
2

> <PUBCHEM_CACTVS_ROTATABLE_BOND>
0

> <PUBCHEM_CACTVS_SUBSKEYS>
AAADcYBzgABAAAAAAAAAAAAAAAAAASAAAAAsWAAAAAAAAFgB/gAAHAQQAAAADAgBXgQF8fZIEAikAwZhZACD8KlxCLgB2DQoRJiIKCLg2NGEJAxogAJoyCYQAAAMAAAAAAAAAAAAAAAAAAAAAAAAAAAAAA==

> <PUBCHEM_IUPAC_OPENEYE_NAME>
8-thia-3,5,10,12-tetrazatricyclo[7.4.0.02,7]trideca-1(13),2(7),3,5,9,11-hexaene-6,13-diamine

> <PUBCHEM_IUPAC_CAS_NAME>
8-thia-3,5,10,12-tetrazatricyclo[7.4.0.02,7]trideca-1(13),2(7),3,5,9,11-hexaene-6,13-diamine

> <PUBCHEM_IUPAC_NAME_MARKUP>
8-thia-3,5,10,12-tetrazatricyclo[7.4.0.0<SUP>2,7</SUP>]trideca-1(13),2(7),3,5,9,11-hexaene-6,13-diamine

> <PUBCHEM_IUPAC_NAME>
8-thia-3,5,10,12-tetrazatricyclo[7.4.0.02,7]trideca-1(13),2(7),3,5,9,11-hexaene-6,13-diamine

> <PUBCHEM_IUPAC_SYSTEMATIC_NAME>
8-thia-3,5,10,12-tetrazatricyclo[7.4.0.02,7]trideca-1(13),2(7),3,5,9,11-hexaene-6,13-diamine

> <PUBCHEM_IUPAC_TRADITIONAL_NAME>
(6-amino-8-thia-3,5,10,12-tetrazatricyclo[7.4.0.02,7]trideca-1(13),2(7),3,5,9,11-hexaen-13-yl)amine

> <PUBCHEM_IUPAC_INCHI>
InChI=1S/C8H6N6S/c9-6-3-4-5(7(10)13-1-11-4)15-8(3)14-2-12-6/h1-2H,(H2,9,12,14)(H2,10,11,13)

> <PUBCHEM_IUPAC_INCHIKEY>
IUEBPIPDFMCSTP-UHFFFAOYSA-N

> <PUBCHEM_XLOGP3_AA>
0.6

> <PUBCHEM_EXACT_MASS>
218.03746539

> <PUBCHEM_MOLECULAR_FORMULA>
C8H6N6S

> <PUBCHEM_MOLECULAR_WEIGHT>
218.24

> <PUBCHEM_SMILES>
C1=NC2=C(C(=N1)N)SC3=NC=NC(=C23)N

> <PUBCHEM_OPENEYE_CAN_SMILES>
C1=NC2=C(C(=N1)N)SC3=NC=NC(=C23)N

> <PUBCHEM_OPENEYE_ISO_SMILES>
C1=NC2=C(C(=N1)N)SC3=NC=NC(=C23)N

> <PUBCHEM_CACTVS_TPSA>
132

> <PUBCHEM_MONOISOTOPIC_WEIGHT>
218.03746539

> <PUBCHEM_TOTAL_CHARGE>
0

> <PUBCHEM_HEAVY_ATOM_COUNT>
15

> <PUBCHEM_ATOM_DEF_STEREO_COUNT>
0

> <PUBCHEM_ATOM_UDEF_STEREO_COUNT>
0

> <PUBCHEM_BOND_DEF_STEREO_COUNT>
0

> <PUBCHEM_BOND_UDEF_STEREO_COUNT>
0

> <PUBCHEM_ISOTOPIC_ATOM_COUNT>
0

> <PUBCHEM_COMPONENT_COUNT>
1

> <PUBCHEM_CACTVS_TAUTO_COUNT>
-1

> <PUBCHEM_COORDINATE_TYPE>
1
5
255

> <PUBCHEM_BONDANNOTATIONS>
1  10  8
1  11  8
10  13  8
2  14  8
2  9  8
3  11  8
3  15  8
4  12  8
4  15  8
5  13  8
5  14  8
8  11  8
8  12  8
8  9  8
9  10  8

$$$$
