49830994
  -OEChem-03202501122D

 42 45  0     0  0  0  0  0  0999 V2000
    8.7154   -2.3113    0.0000 O   0  0  0  0  0  0  0  0  0  0  0  0
   10.0070   -1.1573    0.0000 N   0  0  0  0  0  0  0  0  0  0  0  0
    4.5124    2.0288    0.0000 N   0  0  0  0  0  0  0  0  0  0  0  0
    5.6782   -0.2476    0.0000 N   0  0  0  0  0  0  0  0  0  0  0  0
    6.2962    1.6545    0.0000 N   0  0  0  0  0  0  0  0  0  0  0  0
   10.6733   -1.9031    0.0000 C   0  0  0  0  0  0  0  0  0  0  0  0
   11.3396   -2.6488    0.0000 C   0  0  0  0  0  0  0  0  0  0  0  0
   11.4190   -1.2368    0.0000 C   0  0  0  0  0  0  0  0  0  0  0  0
    9.9276   -2.5693    0.0000 C   0  0  0  0  0  0  0  0  0  0  0  0
    5.0091    0.4955    0.0000 C   0  0  0  0  0  0  0  0  0  0  0  0
    4.0150    0.4981    0.0000 C   0  0  0  0  0  0  0  0  0  0  0  0
    5.3181    1.4466    0.0000 C   0  0  0  0  0  0  0  0  0  0  0  0
    3.7086    1.4438    0.0000 C   0  0  0  0  0  0  0  0  0  0  0  0
    6.6564   -0.0397    0.0000 C   0  0  0  0  0  0  0  0  0  0  0  0
    8.3618   -0.6158    0.0000 C   0  0  0  0  0  0  0  0  0  0  0  0
    9.0281   -1.3615    0.0000 C   0  0  0  0  0  0  0  0  0  0  0  0
    6.9654    0.9113    0.0000 C   0  0  0  0  0  0  0  0  0  0  0  0
    7.3413   -0.8245    0.0000 C   0  0  0  0  0  0  0  0  0  0  0  0
    8.6837    0.3749    0.0000 C   0  0  0  0  0  0  0  0  0  0  0  0
    7.9808    1.1436    0.0000 C   0  0  0  0  0  0  0  0  0  0  0  0
    3.3334   -0.2814    0.0000 C   0  0  0  0  0  0  0  0  0  0  0  0
    2.6994    1.6755    0.0000 C   0  0  0  0  0  0  0  0  0  0  0  0
    2.3191   -0.0731    0.0000 C   0  0  0  0  0  0  0  0  0  0  0  0
    2.0000    0.9120    0.0000 C   0  0  0  0  0  0  0  0  0  0  0  0
   10.2009   -0.5684    0.0000 H   0  0  0  0  0  0  0  0  0  0  0  0
   10.8772   -3.0619    0.0000 H   0  0  0  0  0  0  0  0  0  0  0  0
   11.7526   -3.1111    0.0000 H   0  0  0  0  0  0  0  0  0  0  0  0
   11.8019   -2.2357    0.0000 H   0  0  0  0  0  0  0  0  0  0  0  0
   11.8321   -1.6991    0.0000 H   0  0  0  0  0  0  0  0  0  0  0  0
   11.8814   -0.8237    0.0000 H   0  0  0  0  0  0  0  0  0  0  0  0
   11.0059   -0.7744    0.0000 H   0  0  0  0  0  0  0  0  0  0  0  0
    9.5145   -2.1070    0.0000 H   0  0  0  0  0  0  0  0  0  0  0  0
    9.4652   -2.9824    0.0000 H   0  0  0  0  0  0  0  0  0  0  0  0
   10.3407   -3.0317    0.0000 H   0  0  0  0  0  0  0  0  0  0  0  0
    4.5113    2.6488    0.0000 H   0  0  0  0  0  0  0  0  0  0  0  0
    7.1429   -1.4119    0.0000 H   0  0  0  0  0  0  0  0  0  0  0  0
    9.2897    0.5061    0.0000 H   0  0  0  0  0  0  0  0  0  0  0  0
    8.1655    1.7354    0.0000 H   0  0  0  0  0  0  0  0  0  0  0  0
    3.5313   -0.8690    0.0000 H   0  0  0  0  0  0  0  0  0  0  0  0
    2.5152    2.2675    0.0000 H   0  0  0  0  0  0  0  0  0  0  0  0
    1.9056   -0.5351    0.0000 H   0  0  0  0  0  0  0  0  0  0  0  0
    1.3942    1.0438    0.0000 H   0  0  0  0  0  0  0  0  0  0  0  0
  1 16  2  0  0  0  0
  2  6  1  0  0  0  0
  2 16  1  0  0  0  0
  2 25  1  0  0  0  0
  3 12  1  0  0  0  0
  3 13  1  0  0  0  0
  3 35  1  0  0  0  0
  4 10  2  0  0  0  0
  4 14  1  0  0  0  0
  5 12  2  0  0  0  0
  5 17  1  0  0  0  0
  6  7  1  0  0  0  0
  6  8  1  0  0  0  0
  6  9  1  0  0  0  0
  7 26  1  0  0  0  0
  7 27  1  0  0  0  0
  7 28  1  0  0  0  0
  8 29  1  0  0  0  0
  8 30  1  0  0  0  0
  8 31  1  0  0  0  0
  9 32  1  0  0  0  0
  9 33  1  0  0  0  0
  9 34  1  0  0  0  0
 10 11  1  0  0  0  0
 10 12  1  0  0  0  0
 11 13  1  0  0  0  0
 11 21  2  0  0  0  0
 13 22  2  0  0  0  0
 14 17  2  0  0  0  0
 14 18  1  0  0  0  0
 15 16  1  0  0  0  0
 15 18  2  0  0  0  0
 15 19  1  0  0  0  0
 17 20  1  0  0  0  0
 18 36  1  0  0  0  0
 19 20  2  0  0  0  0
 19 37  1  0  0  0  0
 20 38  1  0  0  0  0
 21 23  1  0  0  0  0
 21 39  1  0  0  0  0
 22 24  1  0  0  0  0
 22 40  1  0  0  0  0
 23 24  2  0  0  0  0
 23 41  1  0  0  0  0
 24 42  1  0  0  0  0
M  END
> <PUBCHEM_COMPOUND_CID>
49830994

> <PUBCHEM_COMPOUND_CANONICALIZED>
1

> <PUBCHEM_CACTVS_COMPLEXITY>
488

> <PUBCHEM_CACTVS_HBOND_ACCEPTOR>
3

> <PUBCHEM_CACTVS_HBOND_DONOR>
2

> <PUBCHEM_CACTVS_ROTATABLE_BOND>
2

> <PUBCHEM_CACTVS_SUBSKEYS>
AAADceB7oAAAAAAAAAAAAAAAAAAAAWAAAAA8YIAAAAAAAFix/gAAHgAQAAAADIiBnwAz8P7JkACoAydydACCgC2lEqAJmSEwdNiIaPLA3dGUJQholALIyacciYCeCAAAQAACACAQAACAAAQAQAAAAAAAAA==

> <PUBCHEM_IUPAC_OPENEYE_NAME>
N-tert-butyl-6H-indolo[2,3-b]quinoxaline-2-carboxamide

> <PUBCHEM_IUPAC_CAS_NAME>
N-tert-butyl-6H-indolo[2,3-b]quinoxaline-2-carboxamide

> <PUBCHEM_IUPAC_NAME_MARKUP>
<I>N</I>-<I>tert</I>-butyl-6<I>H</I>-indolo[2,3-b]quinoxaline-2-carboxamide

> <PUBCHEM_IUPAC_NAME>
N-tert-butyl-6H-indolo[2,3-b]quinoxaline-2-carboxamide

> <PUBCHEM_IUPAC_SYSTEMATIC_NAME>
N-tert-butyl-6H-indolo[2,3-b]quinoxaline-2-carboxamide

> <PUBCHEM_IUPAC_TRADITIONAL_NAME>
N-tert-butyl-6H-indolo[2,3-b]quinoxaline-2-carboxamide

> <PUBCHEM_IUPAC_INCHI>
InChI=1S/C19H18N4O/c1-19(2,3)23-18(24)11-8-9-14-15(10-11)20-16-12-6-4-5-7-13(12)21-17(16)22-14/h4-10H,1-3H3,(H,21,22)(H,23,24)

> <PUBCHEM_IUPAC_INCHIKEY>
XUGXUDSTKPTWNB-UHFFFAOYSA-N

> <PUBCHEM_XLOGP3_AA>
3.4

> <PUBCHEM_EXACT_MASS>
318.14806121

> <PUBCHEM_MOLECULAR_FORMULA>
C19H18N4O

> <PUBCHEM_MOLECULAR_WEIGHT>
318.4

> <PUBCHEM_SMILES>
CC(C)(C)NC(=O)C1=CC2=C(C=C1)N=C3C(=N2)C4=CC=CC=C4N3

> <PUBCHEM_OPENEYE_CAN_SMILES>
CC(C)(C)NC(=O)C1=CC2=C(C=C1)N=C3C(=N2)C4=CC=CC=C4N3

> <PUBCHEM_OPENEYE_ISO_SMILES>
CC(C)(C)NC(=O)C1=CC2=C(C=C1)N=C3C(=N2)C4=CC=CC=C4N3

> <PUBCHEM_CACTVS_TPSA>
70.7

> <PUBCHEM_MONOISOTOPIC_WEIGHT>
318.14806121

> <PUBCHEM_TOTAL_CHARGE>
0

> <PUBCHEM_HEAVY_ATOM_COUNT>
24

> <PUBCHEM_ATOM_DEF_STEREO_COUNT>
0

> <PUBCHEM_ATOM_UDEF_STEREO_COUNT>
0

> <PUBCHEM_BOND_DEF_STEREO_COUNT>
0

> <PUBCHEM_BOND_UDEF_STEREO_COUNT>
0

> <PUBCHEM_ISOTOPIC_ATOM_COUNT>
0

> <PUBCHEM_COMPONENT_COUNT>
1

> <PUBCHEM_CACTVS_TAUTO_COUNT>
-1

> <PUBCHEM_COORDINATE_TYPE>
1
5
255

> <PUBCHEM_BONDANNOTATIONS>
10  11  8
10  12  8
11  13  8
11  21  8
13  22  8
14  17  8
14  18  8
15  18  8
15  19  8
17  20  8
19  20  8
21  23  8
22  24  8
23  24  8
3  12  8
3  13  8
4  10  8
4  14  8
5  12  8
5  17  8

$$$$
