44592504
  -OEChem-03202506542D

 47 50  0     1  0  0  0  0  0999 V2000
    9.1880   -1.2729    0.0000 Br  0  0  0  0  0  0  0  0  0  0  0  0
    6.6190   -0.9639    0.0000 S   0  0  0  0  0  0  0  0  0  0  0  0
    2.0000    3.8232    0.0000 F   0  0  0  0  0  0  0  0  0  0  0  0
    5.3457    0.6916    0.0000 O   0  0  0  0  0  0  0  0  0  0  0  0
    6.7469    1.7097    0.0000 N   0  0  0  0  0  0  0  0  0  0  0  0
    7.5604    3.5368    0.0000 N   0  0  0  0  0  0  0  0  0  0  0  0
    9.2402   -4.3564    0.0000 N   0  0  0  0  0  0  0  0  0  0  0  0
    7.4280   -4.5517    0.0000 N   0  0  0  0  0  0  0  0  0  0  0  0
    6.1591    2.5187    0.0000 C   0  0  1  0  0  0  0  0  0  0  0  0
    5.1646    2.4142    0.0000 C   0  0  0  0  0  0  0  0  0  0  0  0
    6.5659    3.4323    0.0000 C   0  0  0  0  0  0  0  0  0  0  0  0
    4.5768    3.2232    0.0000 C   0  0  0  0  0  0  0  0  0  0  0  0
    6.3402    0.7962    0.0000 C   0  0  0  0  0  0  0  0  0  0  0  0
    7.4280   -2.5517    0.0000 C   0  0  0  0  0  0  0  0  0  0  0  0
    6.9280   -0.0129    0.0000 C   0  0  0  0  0  0  0  0  0  0  0  0
    7.4280   -1.5517    0.0000 C   0  0  0  0  0  0  0  0  0  0  0  0
    8.2940   -3.0517    0.0000 C   0  0  0  0  0  0  0  0  0  0  0  0
    3.5823    3.1187    0.0000 C   0  0  0  0  0  0  0  0  0  0  0  0
    4.9836    4.1368    0.0000 C   0  0  0  0  0  0  0  0  0  0  0  0
    8.2940   -4.0517    0.0000 C   0  0  0  0  0  0  0  0  0  0  0  0
    7.9280   -0.0129    0.0000 C   0  0  0  0  0  0  0  0  0  0  0  0
    8.2370   -0.9639    0.0000 C   0  0  0  0  0  0  0  0  0  0  0  0
    9.2402   -2.7470    0.0000 C   0  0  0  0  0  0  0  0  0  0  0  0
    6.5619   -3.0517    0.0000 C   0  0  0  0  0  0  0  0  0  0  0  0
    2.9945    3.9277    0.0000 C   0  0  0  0  0  0  0  0  0  0  0  0
    4.3958    4.9458    0.0000 C   0  0  0  0  0  0  0  0  0  0  0  0
    9.8238   -3.5517    0.0000 C   0  0  0  0  0  0  0  0  0  0  0  0
    3.4013    4.8412    0.0000 C   0  0  0  0  0  0  0  0  0  0  0  0
    6.5619   -4.0517    0.0000 C   0  0  0  0  0  0  0  0  0  0  0  0
    6.7757    2.5835    0.0000 H   0  0  0  0  0  0  0  0  0  0  0  0
    4.6074    2.1424    0.0000 H   0  0  0  0  0  0  0  0  0  0  0  0
    5.3355    1.8182    0.0000 H   0  0  0  0  0  0  0  0  0  0  0  0
    6.6091    4.0508    0.0000 H   0  0  0  0  0  0  0  0  0  0  0  0
    5.9643    3.5822    0.0000 H   0  0  0  0  0  0  0  0  0  0  0  0
    7.3635    1.7745    0.0000 H   0  0  0  0  0  0  0  0  0  0  0  0
    3.3301    2.5523    0.0000 H   0  0  0  0  0  0  0  0  0  0  0  0
    5.6002    4.2016    0.0000 H   0  0  0  0  0  0  0  0  0  0  0  0
    7.8126    4.1032    0.0000 H   0  0  0  0  0  0  0  0  0  0  0  0
    7.9248    3.0352    0.0000 H   0  0  0  0  0  0  0  0  0  0  0  0
    8.2924    0.4887    0.0000 H   0  0  0  0  0  0  0  0  0  0  0  0
    9.4328   -2.1576    0.0000 H   0  0  0  0  0  0  0  0  0  0  0  0
    6.0250   -2.7417    0.0000 H   0  0  0  0  0  0  0  0  0  0  0  0
    4.6480    5.5122    0.0000 H   0  0  0  0  0  0  0  0  0  0  0  0
    9.4328   -4.9458    0.0000 H   0  0  0  0  0  0  0  0  0  0  0  0
   10.4438   -3.5517    0.0000 H   0  0  0  0  0  0  0  0  0  0  0  0
    3.0368    5.3428    0.0000 H   0  0  0  0  0  0  0  0  0  0  0  0
    6.0250   -4.3617    0.0000 H   0  0  0  0  0  0  0  0  0  0  0  0
  1 22  1  0  0  0  0
  2 15  1  0  0  0  0
  2 16  1  0  0  0  0
  3 25  1  0  0  0  0
  4 13  2  0  0  0  0
  9  5  1  1  0  0  0
  5 13  1  0  0  0  0
  5 35  1  0  0  0  0
  6 11  1  0  0  0  0
  6 38  1  0  0  0  0
  6 39  1  0  0  0  0
  7 20  1  0  0  0  0
  7 27  1  0  0  0  0
  7 44  1  0  0  0  0
  8 20  2  0  0  0  0
  8 29  1  0  0  0  0
  9 10  1  0  0  0  0
  9 11  1  0  0  0  0
  9 30  1  0  0  0  0
 10 12  1  0  0  0  0
 10 31  1  0  0  0  0
 10 32  1  0  0  0  0
 11 33  1  0  0  0  0
 11 34  1  0  0  0  0
 12 18  2  0  0  0  0
 12 19  1  0  0  0  0
 13 15  1  0  0  0  0
 14 16  1  0  0  0  0
 14 17  2  0  0  0  0
 14 24  1  0  0  0  0
 15 21  2  0  0  0  0
 16 22  2  0  0  0  0
 17 20  1  0  0  0  0
 17 23  1  0  0  0  0
 18 25  1  0  0  0  0
 18 36  1  0  0  0  0
 19 26  2  0  0  0  0
 19 37  1  0  0  0  0
 21 22  1  0  0  0  0
 21 40  1  0  0  0  0
 23 27  2  0  0  0  0
 23 41  1  0  0  0  0
 24 29  2  0  0  0  0
 24 42  1  0  0  0  0
 25 28  2  0  0  0  0
 26 28  1  0  0  0  0
 26 43  1  0  0  0  0
 27 45  1  0  0  0  0
 28 46  1  0  0  0  0
 29 47  1  0  0  0  0
M  END
> <PUBCHEM_COMPOUND_CID>
44592504

> <PUBCHEM_COMPOUND_CANONICALIZED>
1

> <PUBCHEM_CACTVS_COMPLEXITY>
573

> <PUBCHEM_CACTVS_HBOND_ACCEPTOR>
5

> <PUBCHEM_CACTVS_HBOND_DONOR>
3

> <PUBCHEM_CACTVS_ROTATABLE_BOND>
6

> <PUBCHEM_CACTVS_SUBSKEYS>
AAADceB7oQBAEAAAAAAAAAAAAAAAAWJAAAA8QAAAAAAAAFgB/gAAHwRQAAABrCjB2ww9sd7JkAisAjN3dACDgKm1CrRJ2bk4ZPiIaPLgnZGUIQholgLoy7cYiMCOgAAAAAAAAAAAAAAAAAAAAAAAAAAAAA==

> <PUBCHEM_IUPAC_OPENEYE_NAME>
N-[(1S)-1-(aminomethyl)-2-(3-fluorophenyl)ethyl]-4-bromo-5-(1H-pyrrolo[2,3-b]pyridin-4-yl)thiophene-2-carboxamide

> <PUBCHEM_IUPAC_CAS_NAME>
N-[(2S)-1-amino-3-(3-fluorophenyl)propan-2-yl]-4-bromo-5-(1H-pyrrolo[2,3-b]pyridin-4-yl)-2-thiophenecarboxamide

> <PUBCHEM_IUPAC_NAME_MARKUP>
<I>N</I>-[(2<I>S</I>)-1-amino-3-(3-fluorophenyl)propan-2-yl]-4-bromo-5-(1<I>H</I>-pyrrolo[2,3-b]pyridin-4-yl)thiophene-2-carboxamide

> <PUBCHEM_IUPAC_NAME>
N-[(2S)-1-amino-3-(3-fluorophenyl)propan-2-yl]-4-bromo-5-(1H-pyrrolo[2,3-b]pyridin-4-yl)thiophene-2-carboxamide

> <PUBCHEM_IUPAC_SYSTEMATIC_NAME>
N-[(2S)-1-azanyl-3-(3-fluorophenyl)propan-2-yl]-4-bromanyl-5-(1H-pyrrolo[2,3-b]pyridin-4-yl)thiophene-2-carboxamide

> <PUBCHEM_IUPAC_TRADITIONAL_NAME>
N-[(1S)-1-(aminomethyl)-2-(3-fluorophenyl)ethyl]-4-bromo-5-(1H-pyrrolo[2,3-b]pyridin-4-yl)thiophene-2-carboxamide

> <PUBCHEM_IUPAC_INCHI>
InChI=1S/C21H18BrFN4OS/c22-17-10-18(29-19(17)15-4-6-25-20-16(15)5-7-26-20)21(28)27-14(11-24)9-12-2-1-3-13(23)8-12/h1-8,10,14H,9,11,24H2,(H,25,26)(H,27,28)/t14-/m0/s1

> <PUBCHEM_IUPAC_INCHIKEY>
KEBMSGAJMPWLNS-AWEZNQCLSA-N

> <PUBCHEM_XLOGP3_AA>
4.1

> <PUBCHEM_EXACT_MASS>
472.03687

> <PUBCHEM_MOLECULAR_FORMULA>
C21H18BrFN4OS

> <PUBCHEM_MOLECULAR_WEIGHT>
473.4

> <PUBCHEM_SMILES>
C1=CC(=CC(=C1)F)C[C@@H](CN)NC(=O)C2=CC(=C(S2)C3=C4C=CNC4=NC=C3)Br

> <PUBCHEM_OPENEYE_CAN_SMILES>
C1=CC(=CC(=C1)F)CC(CN)NC(=O)C2=CC(=C(S2)C3=C4C=CNC4=NC=C3)Br

> <PUBCHEM_OPENEYE_ISO_SMILES>
C1=CC(=CC(=C1)F)C[C@@H](CN)NC(=O)C2=CC(=C(S2)C3=C4C=CNC4=NC=C3)Br

> <PUBCHEM_CACTVS_TPSA>
112

> <PUBCHEM_MONOISOTOPIC_WEIGHT>
472.03687

> <PUBCHEM_TOTAL_CHARGE>
0

> <PUBCHEM_HEAVY_ATOM_COUNT>
29

> <PUBCHEM_ATOM_DEF_STEREO_COUNT>
1

> <PUBCHEM_ATOM_UDEF_STEREO_COUNT>
0

> <PUBCHEM_BOND_DEF_STEREO_COUNT>
0

> <PUBCHEM_BOND_UDEF_STEREO_COUNT>
0

> <PUBCHEM_ISOTOPIC_ATOM_COUNT>
0

> <PUBCHEM_COMPONENT_COUNT>
1

> <PUBCHEM_CACTVS_TAUTO_COUNT>
-1

> <PUBCHEM_COORDINATE_TYPE>
1
5
255

> <PUBCHEM_BONDANNOTATIONS>
12  18  8
12  19  8
14  17  8
14  24  8
15  21  8
16  22  8
17  20  8
17  23  8
18  25  8
19  26  8
2  15  8
2  16  8
21  22  8
23  27  8
24  29  8
25  28  8
26  28  8
9  5  5
7  20  8
7  27  8
8  20  8
8  29  8

$$$$
