49831015
  -OEChem-03202501192D

 27 29  0     0  0  0  0  0  0999 V2000
    4.6783   -2.6147    0.0000 O   0  0  0  0  0  0  0  0  0  0  0  0
    4.5981    2.1900    0.0000 O   0  0  0  0  0  0  0  0  0  0  0  0
    5.2619   -1.8100    0.0000 N   0  0  0  0  0  0  0  0  0  0  0  0
    4.9889   -0.0547    0.0000 N   0  0  0  0  0  0  0  0  0  0  0  0
    2.8660   -0.8100    0.0000 C   0  0  0  0  0  0  0  0  0  0  0  0
    3.7320   -1.3100    0.0000 C   0  0  0  0  0  0  0  0  0  0  0  0
    2.8660    0.1900    0.0000 C   0  0  0  0  0  0  0  0  0  0  0  0
    3.7320   -2.3100    0.0000 C   0  0  0  0  0  0  0  0  0  0  0  0
    2.0000   -1.3100    0.0000 C   0  0  0  0  0  0  0  0  0  0  0  0
    4.6783   -1.0053    0.0000 C   0  0  0  0  0  0  0  0  0  0  0  0
    2.8660   -2.8100    0.0000 C   0  0  0  0  0  0  0  0  0  0  0  0
    2.0000   -2.3100    0.0000 C   0  0  0  0  0  0  0  0  0  0  0  0
    3.7320    0.6900    0.0000 C   0  0  0  0  0  0  0  0  0  0  0  0
    2.0000    0.6900    0.0000 C   0  0  0  0  0  0  0  0  0  0  0  0
    3.7320    1.6900    0.0000 C   0  0  0  0  0  0  0  0  0  0  0  0
    2.0000    1.6900    0.0000 C   0  0  0  0  0  0  0  0  0  0  0  0
    2.8660    2.1900    0.0000 C   0  0  0  0  0  0  0  0  0  0  0  0
    1.4631   -1.0000    0.0000 H   0  0  0  0  0  0  0  0  0  0  0  0
    2.8660   -3.4300    0.0000 H   0  0  0  0  0  0  0  0  0  0  0  0
    1.4631   -2.6200    0.0000 H   0  0  0  0  0  0  0  0  0  0  0  0
    4.2690    0.3800    0.0000 H   0  0  0  0  0  0  0  0  0  0  0  0
    1.4631    0.3800    0.0000 H   0  0  0  0  0  0  0  0  0  0  0  0
    1.4631    2.0000    0.0000 H   0  0  0  0  0  0  0  0  0  0  0  0
    2.8660    2.8100    0.0000 H   0  0  0  0  0  0  0  0  0  0  0  0
    5.5956    0.0731    0.0000 H   0  0  0  0  0  0  0  0  0  0  0  0
    4.5749    0.4067    0.0000 H   0  0  0  0  0  0  0  0  0  0  0  0
    4.5981    2.8100    0.0000 H   0  0  0  0  0  0  0  0  0  0  0  0
  1  3  1  0  0  0  0
  1  8  1  0  0  0  0
  2 15  1  0  0  0  0
  2 27  1  0  0  0  0
  3 10  2  0  0  0  0
  4 10  1  0  0  0  0
  4 25  1  0  0  0  0
  4 26  1  0  0  0  0
  5  6  2  0  0  0  0
  5  7  1  0  0  0  0
  5  9  1  0  0  0  0
  6  8  1  0  0  0  0
  6 10  1  0  0  0  0
  7 13  2  0  0  0  0
  7 14  1  0  0  0  0
  8 11  2  0  0  0  0
  9 12  2  0  0  0  0
  9 18  1  0  0  0  0
 11 12  1  0  0  0  0
 11 19  1  0  0  0  0
 12 20  1  0  0  0  0
 13 15  1  0  0  0  0
 13 21  1  0  0  0  0
 14 16  2  0  0  0  0
 14 22  1  0  0  0  0
 15 17  2  0  0  0  0
 16 17  1  0  0  0  0
 16 23  1  0  0  0  0
 17 24  1  0  0  0  0
M  END
> <PUBCHEM_COMPOUND_CID>
49831015

> <PUBCHEM_COMPOUND_CANONICALIZED>
1

> <PUBCHEM_CACTVS_COMPLEXITY>
274

> <PUBCHEM_CACTVS_HBOND_ACCEPTOR>
4

> <PUBCHEM_CACTVS_HBOND_DONOR>
2

> <PUBCHEM_CACTVS_ROTATABLE_BOND>
1

> <PUBCHEM_CACTVS_SUBSKEYS>
AAADccBzMAAAAAAAAAAAAAAAAAAAAWAAAAAwYAAAAAAAAFgB9AAAHgAUCAAADASBmgAxttBQAgCpAqJyYgCCAAAkIAAomCEmTNoIJjqClZOAcYBmwBkI2ceYyPCOgAABAAAYAAAAAAIAADAAAAAAAAAAAA==

> <PUBCHEM_IUPAC_OPENEYE_NAME>
3-(3-amino-1,2-benzoxazol-4-yl)phenol

> <PUBCHEM_IUPAC_CAS_NAME>
3-(3-amino-1,2-benzoxazol-4-yl)phenol

> <PUBCHEM_IUPAC_NAME_MARKUP>
3-(3-amino-1,2-benzoxazol-4-yl)phenol

> <PUBCHEM_IUPAC_NAME>
3-(3-amino-1,2-benzoxazol-4-yl)phenol

> <PUBCHEM_IUPAC_SYSTEMATIC_NAME>
3-(3-azanyl-1,2-benzoxazol-4-yl)phenol

> <PUBCHEM_IUPAC_TRADITIONAL_NAME>
3-(3-aminoindoxazen-4-yl)phenol

> <PUBCHEM_IUPAC_INCHI>
InChI=1S/C13H10N2O2/c14-13-12-10(5-2-6-11(12)17-15-13)8-3-1-4-9(16)7-8/h1-7,16H,(H2,14,15)

> <PUBCHEM_IUPAC_INCHIKEY>
DJRPFIWIDKXORZ-UHFFFAOYSA-N

> <PUBCHEM_XLOGP3_AA>
2.6

> <PUBCHEM_EXACT_MASS>
226.074227566

> <PUBCHEM_MOLECULAR_FORMULA>
C13H10N2O2

> <PUBCHEM_MOLECULAR_WEIGHT>
226.23

> <PUBCHEM_SMILES>
C1=CC(=CC(=C1)O)C2=C3C(=CC=C2)ON=C3N

> <PUBCHEM_OPENEYE_CAN_SMILES>
C1=CC(=CC(=C1)O)C2=C3C(=CC=C2)ON=C3N

> <PUBCHEM_OPENEYE_ISO_SMILES>
C1=CC(=CC(=C1)O)C2=C3C(=CC=C2)ON=C3N

> <PUBCHEM_CACTVS_TPSA>
72.3

> <PUBCHEM_MONOISOTOPIC_WEIGHT>
226.074227566

> <PUBCHEM_TOTAL_CHARGE>
0

> <PUBCHEM_HEAVY_ATOM_COUNT>
17

> <PUBCHEM_ATOM_DEF_STEREO_COUNT>
0

> <PUBCHEM_ATOM_UDEF_STEREO_COUNT>
0

> <PUBCHEM_BOND_DEF_STEREO_COUNT>
0

> <PUBCHEM_BOND_UDEF_STEREO_COUNT>
0

> <PUBCHEM_ISOTOPIC_ATOM_COUNT>
0

> <PUBCHEM_COMPONENT_COUNT>
1

> <PUBCHEM_CACTVS_TAUTO_COUNT>
-1

> <PUBCHEM_COORDINATE_TYPE>
1
5
255

> <PUBCHEM_BONDANNOTATIONS>
1  3  8
1  8  8
11  12  8
13  15  8
14  16  8
15  17  8
16  17  8
3  10  8
5  6  8
5  9  8
6  10  8
6  8  8
7  13  8
7  14  8
8  11  8
9  12  8

$$$$
