5327966
  -OEChem-03202500422D

 65 68  0     1  0  0  0  0  0999 V2000
    4.3802   -1.7180    0.0000 O   0  0  0  0  0  0  0  0  0  0  0  0
    5.1906   -5.1328    0.0000 O   0  0  0  0  0  0  0  0  0  0  0  0
    3.0261   -0.6381    0.0000 O   0  0  0  0  0  0  0  0  0  0  0  0
    7.2396    0.4785    0.0000 O   0  0  0  0  0  0  0  0  0  0  0  0
    4.5312    2.6383    0.0000 O   0  0  0  0  0  0  0  0  0  0  0  0
    9.6906   -4.2668    0.0000 O   0  0  0  0  0  0  0  0  0  0  0  0
    7.4977    2.1912    0.0000 O   0  0  0  0  0  0  0  0  0  0  0  0
    8.3793    4.6857    0.0000 O   0  0  0  0  0  0  0  0  0  0  0  0
    8.1212    2.9730    0.0000 O   0  0  0  0  0  0  0  0  0  0  0  0
    2.7818   -4.5243    0.0000 N   0  0  0  0  0  0  0  0  0  0  0  0
    5.1906   -3.4008    0.0000 N   0  0  0  0  0  0  0  0  0  0  0  0
    4.1906   -3.4008    0.0000 C   0  0  1  0  0  0  0  0  0  0  0  0
    3.7568   -2.4998    0.0000 C   0  0  1  0  0  0  0  0  0  0  0  0
    2.7818   -2.2773    0.0000 C   0  0  0  0  0  0  0  0  0  0  0  0
    3.7568   -4.3018    0.0000 C   0  0  0  0  0  0  0  0  0  0  0  0
    2.0000   -2.9008    0.0000 C   0  0  0  0  0  0  0  0  0  0  0  0
    2.0000   -3.9008    0.0000 C   0  0  0  0  0  0  0  0  0  0  0  0
    5.6906   -4.2668    0.0000 C   0  0  0  0  0  0  0  0  0  0  0  0
    4.0149   -0.7871    0.0000 C   0  0  0  0  0  0  0  0  0  0  0  0
    6.6906   -4.2668    0.0000 C   0  0  0  0  0  0  0  0  0  0  0  0
    4.6384   -0.0053    0.0000 C   0  0  0  0  0  0  0  0  0  0  0  0
    4.2731    0.9256    0.0000 C   0  0  0  0  0  0  0  0  0  0  0  0
    5.6272   -0.1543    0.0000 C   0  0  0  0  0  0  0  0  0  0  0  0
    7.1906   -3.4008    0.0000 C   0  0  0  0  0  0  0  0  0  0  0  0
    7.1906   -5.1328    0.0000 C   0  0  0  0  0  0  0  0  0  0  0  0
    6.2507    0.6275    0.0000 C   0  0  0  0  0  0  0  0  0  0  0  0
    4.8966    1.7074    0.0000 C   0  0  0  0  0  0  0  0  0  0  0  0
    5.8854    1.5584    0.0000 C   0  0  0  0  0  0  0  0  0  0  0  0
    8.1906   -3.4008    0.0000 C   0  0  0  0  0  0  0  0  0  0  0  0
    8.1906   -5.1328    0.0000 C   0  0  0  0  0  0  0  0  0  0  0  0
    8.6906   -4.2668    0.0000 C   0  0  0  0  0  0  0  0  0  0  0  0
    6.5089    2.3402    0.0000 C   0  0  0  0  0  0  0  0  0  0  0  0
    6.1435    3.2711    0.0000 C   0  0  0  0  0  0  0  0  0  0  0  0
    6.7670    4.0529    0.0000 C   0  0  0  0  0  0  0  0  0  0  0  0
    5.1547    3.4201    0.0000 C   0  0  0  0  0  0  0  0  0  0  0  0
    6.4017    4.9838    0.0000 C   0  0  0  0  0  0  0  0  0  0  0  0
    4.7894    4.3510    0.0000 C   0  0  0  0  0  0  0  0  0  0  0  0
    5.4128    5.1328    0.0000 C   0  0  0  0  0  0  0  0  0  0  0  0
    7.7558    3.9039    0.0000 C   0  0  0  0  0  0  0  0  0  0  0  0
    4.5205   -3.9258    0.0000 H   0  0  0  0  0  0  0  0  0  0  0  0
    4.3729   -2.5692    0.0000 H   0  0  0  0  0  0  0  0  0  0  0  0
    3.0508   -1.7187    0.0000 H   0  0  0  0  0  0  0  0  0  0  0  0
    2.2971   -1.8907    0.0000 H   0  0  0  0  0  0  0  0  0  0  0  0
    3.7568   -4.9218    0.0000 H   0  0  0  0  0  0  0  0  0  0  0  0
    4.3612   -4.4397    0.0000 H   0  0  0  0  0  0  0  0  0  0  0  0
    1.7310   -2.3422    0.0000 H   0  0  0  0  0  0  0  0  0  0  0  0
    1.3955   -3.0388    0.0000 H   0  0  0  0  0  0  0  0  0  0  0  0
    1.3955   -3.7628    0.0000 H   0  0  0  0  0  0  0  0  0  0  0  0
    1.7310   -4.4594    0.0000 H   0  0  0  0  0  0  0  0  0  0  0  0
    2.6439   -5.1287    0.0000 H   0  0  0  0  0  0  0  0  0  0  0  0
    5.5006   -2.8638    0.0000 H   0  0  0  0  0  0  0  0  0  0  0  0
    3.6600    1.0180    0.0000 H   0  0  0  0  0  0  0  0  0  0  0  0
    5.8537   -0.7315    0.0000 H   0  0  0  0  0  0  0  0  0  0  0  0
    6.8806   -2.8638    0.0000 H   0  0  0  0  0  0  0  0  0  0  0  0
    6.8806   -5.6698    0.0000 H   0  0  0  0  0  0  0  0  0  0  0  0
    8.5006   -2.8638    0.0000 H   0  0  0  0  0  0  0  0  0  0  0  0
    8.5006   -5.6698    0.0000 H   0  0  0  0  0  0  0  0  0  0  0  0
    7.4661   -0.0987    0.0000 H   0  0  0  0  0  0  0  0  0  0  0  0
    3.9181    2.7307    0.0000 H   0  0  0  0  0  0  0  0  0  0  0  0
    4.7681    2.9354    0.0000 H   0  0  0  0  0  0  0  0  0  0  0  0
   10.0006   -4.8038    0.0000 H   0  0  0  0  0  0  0  0  0  0  0  0
    6.7882    5.4685    0.0000 H   0  0  0  0  0  0  0  0  0  0  0  0
    4.1763    4.4434    0.0000 H   0  0  0  0  0  0  0  0  0  0  0  0
    5.1863    5.7100    0.0000 H   0  0  0  0  0  0  0  0  0  0  0  0
    8.9924    4.5933    0.0000 H   0  0  0  0  0  0  0  0  0  0  0  0
 13  1  1  1  0  0  0
  1 19  1  0  0  0  0
  2 18  2  0  0  0  0
  3 19  2  0  0  0  0
  4 26  1  0  0  0  0
  4 58  1  0  0  0  0
  5 27  1  0  0  0  0
  5 59  1  0  0  0  0
  6 31  1  0  0  0  0
  6 61  1  0  0  0  0
  7 32  2  0  0  0  0
  8 39  1  0  0  0  0
  8 65  1  0  0  0  0
  9 39  2  0  0  0  0
 10 15  1  0  0  0  0
 10 17  1  0  0  0  0
 10 50  1  0  0  0  0
 12 11  1  6  0  0  0
 11 18  1  0  0  0  0
 11 51  1  0  0  0  0
 12 13  1  0  0  0  0
 12 15  1  0  0  0  0
 12 40  1  0  0  0  0
 13 14  1  0  0  0  0
 13 41  1  0  0  0  0
 14 16  1  0  0  0  0
 14 42  1  0  0  0  0
 14 43  1  0  0  0  0
 15 44  1  0  0  0  0
 15 45  1  0  0  0  0
 16 17  1  0  0  0  0
 16 46  1  0  0  0  0
 16 47  1  0  0  0  0
 17 48  1  0  0  0  0
 17 49  1  0  0  0  0
 18 20  1  0  0  0  0
 19 21  1  0  0  0  0
 20 24  2  0  0  0  0
 20 25  1  0  0  0  0
 21 22  2  0  0  0  0
 21 23  1  0  0  0  0
 22 27  1  0  0  0  0
 22 52  1  0  0  0  0
 23 26  2  0  0  0  0
 23 53  1  0  0  0  0
 24 29  1  0  0  0  0
 24 54  1  0  0  0  0
 25 30  2  0  0  0  0
 25 55  1  0  0  0  0
 26 28  1  0  0  0  0
 27 28  2  0  0  0  0
 28 32  1  0  0  0  0
 29 31  2  0  0  0  0
 29 56  1  0  0  0  0
 30 31  1  0  0  0  0
 30 57  1  0  0  0  0
 32 33  1  0  0  0  0
 33 34  1  0  0  0  0
 33 35  2  0  0  0  0
 34 36  2  0  0  0  0
 34 39  1  0  0  0  0
 35 37  1  0  0  0  0
 35 60  1  0  0  0  0
 36 38  1  0  0  0  0
 36 62  1  0  0  0  0
 37 38  2  0  0  0  0
 37 63  1  0  0  0  0
 38 64  1  0  0  0  0
M  END
> <PUBCHEM_COMPOUND_CID>
5327966

> <PUBCHEM_COMPOUND_CANONICALIZED>
1

> <PUBCHEM_CACTVS_COMPLEXITY>
878

> <PUBCHEM_CACTVS_HBOND_ACCEPTOR>
10

> <PUBCHEM_CACTVS_HBOND_DONOR>
6

> <PUBCHEM_CACTVS_ROTATABLE_BOND>
8

> <PUBCHEM_CACTVS_SUBSKEYS>
AAADceB7PAAAAAAAAAAAAAAAAAAAAAAAAAAwYMAABYAAAAABUAAAHgAQCAAADDzhmAYwDoLABgCIAqHSGACCAAAkIAAIiIEODMgKZzaCtRuXcUhn9hWYuYf7/PbO4AABCAAYAADAAAIQADAAAAAAAAAAAA==

> <PUBCHEM_IUPAC_OPENEYE_NAME>
2-[2,6-dihydroxy-4-[(3R,4R)-3-[(4-hydroxybenzoyl)amino]azepan-4-yl]oxycarbonyl-benzoyl]benzoic acid

> <PUBCHEM_IUPAC_CAS_NAME>
2-[[2,6-dihydroxy-4-[[(3R,4R)-3-[[(4-hydroxyphenyl)-oxomethyl]amino]-4-azepanyl]oxy-oxomethyl]phenyl]-oxomethyl]benzoic acid

> <PUBCHEM_IUPAC_NAME_MARKUP>
2-[2,6-dihydroxy-4-[(3<I>R</I>,4<I>R</I>)-3-[(4-hydroxybenzoyl)amino]azepan-4-yl]oxycarbonylbenzoyl]benzoic acid

> <PUBCHEM_IUPAC_NAME>
2-[2,6-dihydroxy-4-[(3R,4R)-3-[(4-hydroxybenzoyl)amino]azepan-4-yl]oxycarbonylbenzoyl]benzoic acid

> <PUBCHEM_IUPAC_SYSTEMATIC_NAME>
2-[4-[(3R,4R)-3-[(4-hydroxyphenyl)carbonylamino]azepan-4-yl]oxycarbonyl-2,6-bis(oxidanyl)phenyl]carbonylbenzoic acid

> <PUBCHEM_IUPAC_TRADITIONAL_NAME>
2-[2,6-dihydroxy-4-[(3R,4R)-3-[(4-hydroxybenzoyl)amino]azepan-4-yl]oxycarbonyl-benzoyl]benzoic acid

> <PUBCHEM_IUPAC_INCHI>
InChI=1S/C28H26N2O9/c31-17-9-7-15(8-10-17)26(35)30-20-14-29-11-3-6-23(20)39-28(38)16-12-21(32)24(22(33)13-16)25(34)18-4-1-2-5-19(18)27(36)37/h1-2,4-5,7-10,12-13,20,23,29,31-33H,3,6,11,14H2,(H,30,35)(H,36,37)/t20-,23-/m1/s1

> <PUBCHEM_IUPAC_INCHIKEY>
KPJDEGAKXAUVAC-NFBKMPQASA-N

> <PUBCHEM_XLOGP3_AA>
1

> <PUBCHEM_EXACT_MASS>
534.16383041

> <PUBCHEM_MOLECULAR_FORMULA>
C28H26N2O9

> <PUBCHEM_MOLECULAR_WEIGHT>
534.5

> <PUBCHEM_SMILES>
C1C[C@H]([C@@H](CNC1)NC(=O)C2=CC=C(C=C2)O)OC(=O)C3=CC(=C(C(=C3)O)C(=O)C4=CC=CC=C4C(=O)O)O

> <PUBCHEM_OPENEYE_CAN_SMILES>
C1CC(C(CNC1)NC(=O)C2=CC=C(C=C2)O)OC(=O)C3=CC(=C(C(=C3)O)C(=O)C4=CC=CC=C4C(=O)O)O

> <PUBCHEM_OPENEYE_ISO_SMILES>
C1C[C@H]([C@@H](CNC1)NC(=O)C2=CC=C(C=C2)O)OC(=O)C3=CC(=C(C(=C3)O)C(=O)C4=CC=CC=C4C(=O)O)O

> <PUBCHEM_CACTVS_TPSA>
182

> <PUBCHEM_MONOISOTOPIC_WEIGHT>
534.16383041

> <PUBCHEM_TOTAL_CHARGE>
0

> <PUBCHEM_HEAVY_ATOM_COUNT>
39

> <PUBCHEM_ATOM_DEF_STEREO_COUNT>
2

> <PUBCHEM_ATOM_UDEF_STEREO_COUNT>
0

> <PUBCHEM_BOND_DEF_STEREO_COUNT>
0

> <PUBCHEM_BOND_UDEF_STEREO_COUNT>
0

> <PUBCHEM_ISOTOPIC_ATOM_COUNT>
0

> <PUBCHEM_COMPONENT_COUNT>
1

> <PUBCHEM_CACTVS_TAUTO_COUNT>
-1

> <PUBCHEM_COORDINATE_TYPE>
1
5
255

> <PUBCHEM_BONDANNOTATIONS>
13  1  5
12  11  6
20  24  8
20  25  8
21  22  8
21  23  8
22  27  8
23  26  8
24  29  8
25  30  8
26  28  8
27  28  8
29  31  8
30  31  8
33  34  8
33  35  8
34  36  8
35  37  8
36  38  8
37  38  8

$$$$
