24905167
  -OEChem-03192523382D

 38 40  0     0  0  0  0  0  0999 V2000
    4.6783   -2.0646    0.0000 N   0  0  0  0  0  0  0  0  0  0  0  0
    5.2619   -1.2598    0.0000 N   0  0  0  0  0  0  0  0  0  0  0  0
    2.8660   -2.2598    0.0000 N   0  0  0  0  0  0  0  0  0  0  0  0
    2.0000   -0.7598    0.0000 N   0  0  0  0  0  0  0  0  0  0  0  0
    2.8660    0.7402    0.0000 N   0  0  0  0  0  0  0  0  0  0  0  0
    7.8779    3.7594    0.0000 N   0  0  0  0  0  0  0  0  0  0  0  0
    4.9889   -3.0151    0.0000 C   0  0  0  0  0  0  0  0  0  0  0  0
    3.7320   -1.7598    0.0000 C   0  0  0  0  0  0  0  0  0  0  0  0
    3.7320   -0.7598    0.0000 C   0  0  0  0  0  0  0  0  0  0  0  0
    4.6783   -0.4551    0.0000 C   0  0  0  0  0  0  0  0  0  0  0  0
    4.9889    0.4954    0.0000 C   0  0  0  0  0  0  0  0  0  0  0  0
    5.9674   -3.2213    0.0000 C   0  0  0  0  0  0  0  0  0  0  0  0
    4.3211   -3.7594    0.0000 C   0  0  0  0  0  0  0  0  0  0  0  0
    2.8660   -0.2598    0.0000 C   0  0  0  0  0  0  0  0  0  0  0  0
    5.9674    0.7016    0.0000 C   0  0  0  0  0  0  0  0  0  0  0  0
    4.3211    1.2397    0.0000 C   0  0  0  0  0  0  0  0  0  0  0  0
    6.2781    1.6521    0.0000 C   0  0  0  0  0  0  0  0  0  0  0  0
    2.0000   -1.7598    0.0000 C   0  0  0  0  0  0  0  0  0  0  0  0
    4.6318    2.1902    0.0000 C   0  0  0  0  0  0  0  0  0  0  0  0
    5.6103    2.3965    0.0000 C   0  0  0  0  0  0  0  0  0  0  0  0
    7.2566    1.8584    0.0000 C   0  0  0  0  0  0  0  0  0  0  0  0
    7.5673    2.8089    0.0000 C   0  0  0  0  0  0  0  0  0  0  0  0
    5.1815   -3.6044    0.0000 H   0  0  0  0  0  0  0  0  0  0  0  0
    5.8396   -3.8280    0.0000 H   0  0  0  0  0  0  0  0  0  0  0  0
    6.5741   -3.3492    0.0000 H   0  0  0  0  0  0  0  0  0  0  0  0
    6.0953   -2.6146    0.0000 H   0  0  0  0  0  0  0  0  0  0  0  0
    3.8596   -3.3453    0.0000 H   0  0  0  0  0  0  0  0  0  0  0  0
    3.9070   -4.2209    0.0000 H   0  0  0  0  0  0  0  0  0  0  0  0
    4.7826   -4.1735    0.0000 H   0  0  0  0  0  0  0  0  0  0  0  0
    6.3815    0.2402    0.0000 H   0  0  0  0  0  0  0  0  0  0  0  0
    3.7144    1.1118    0.0000 H   0  0  0  0  0  0  0  0  0  0  0  0
    1.4631   -2.0699    0.0000 H   0  0  0  0  0  0  0  0  0  0  0  0
    4.2177    2.6517    0.0000 H   0  0  0  0  0  0  0  0  0  0  0  0
    5.8029    2.9858    0.0000 H   0  0  0  0  0  0  0  0  0  0  0  0
    7.2772    1.2387    0.0000 H   0  0  0  0  0  0  0  0  0  0  0  0
    7.8704    1.7710    0.0000 H   0  0  0  0  0  0  0  0  0  0  0  0
    2.3291    1.0502    0.0000 H   0  0  0  0  0  0  0  0  0  0  0  0
    3.4030    1.0502    0.0000 H   0  0  0  0  0  0  0  0  0  0  0  0
  1  2  1  0  0  0  0
  1  7  1  0  0  0  0
  1  8  1  0  0  0  0
  2 10  2  0  0  0  0
  3  8  2  0  0  0  0
  3 18  1  0  0  0  0
  4 14  1  0  0  0  0
  4 18  2  0  0  0  0
  5 14  1  0  0  0  0
  5 37  1  0  0  0  0
  5 38  1  0  0  0  0
  6 22  3  0  0  0  0
  7 12  1  0  0  0  0
  7 13  1  0  0  0  0
  7 23  1  0  0  0  0
  8  9  1  0  0  0  0
  9 10  1  0  0  0  0
  9 14  2  0  0  0  0
 10 11  1  0  0  0  0
 11 15  1  0  0  0  0
 11 16  2  0  0  0  0
 12 24  1  0  0  0  0
 12 25  1  0  0  0  0
 12 26  1  0  0  0  0
 13 27  1  0  0  0  0
 13 28  1  0  0  0  0
 13 29  1  0  0  0  0
 15 17  2  0  0  0  0
 15 30  1  0  0  0  0
 16 19  1  0  0  0  0
 16 31  1  0  0  0  0
 17 20  1  0  0  0  0
 17 21  1  0  0  0  0
 18 32  1  0  0  0  0
 19 20  2  0  0  0  0
 19 33  1  0  0  0  0
 20 34  1  0  0  0  0
 21 22  1  0  0  0  0
 21 35  1  0  0  0  0
 21 36  1  0  0  0  0
M  END
> <PUBCHEM_COMPOUND_CID>
24905167

> <PUBCHEM_COMPOUND_CANONICALIZED>
1

> <PUBCHEM_CACTVS_COMPLEXITY>
430

> <PUBCHEM_CACTVS_HBOND_ACCEPTOR>
5

> <PUBCHEM_CACTVS_HBOND_DONOR>
1

> <PUBCHEM_CACTVS_ROTATABLE_BOND>
3

> <PUBCHEM_CACTVS_SUBSKEYS>
AAADceB7gAAAAAAAAAAAAAAAAAAAAWAAAAA8QAAAAAAAAFgB/AAAHAAYAAAADCjBHwQ3sN5IEACyByZjZACShCsxgKAd2CAoRJiIqKLA2dGEpAhoiALIyC8QgMAOAAACAAAAAAAAAAQAAAAAAAAAAAAAAA==

> <PUBCHEM_IUPAC_OPENEYE_NAME>
2-[3-(4-amino-1-isopropyl-pyrazolo[3,4-d]pyrimidin-3-yl)phenyl]acetonitrile

> <PUBCHEM_IUPAC_CAS_NAME>
2-[3-(4-amino-1-propan-2-yl-3-pyrazolo[3,4-d]pyrimidinyl)phenyl]acetonitrile

> <PUBCHEM_IUPAC_NAME_MARKUP>
2-[3-(4-amino-1-propan-2-ylpyrazolo[3,4-d]pyrimidin-3-yl)phenyl]acetonitrile

> <PUBCHEM_IUPAC_NAME>
2-[3-(4-amino-1-propan-2-ylpyrazolo[3,4-d]pyrimidin-3-yl)phenyl]acetonitrile

> <PUBCHEM_IUPAC_SYSTEMATIC_NAME>
2-[3-(4-azanyl-1-propan-2-yl-pyrazolo[3,4-d]pyrimidin-3-yl)phenyl]ethanenitrile

> <PUBCHEM_IUPAC_TRADITIONAL_NAME>
2-[3-(4-amino-1-isopropyl-pyrazolo[3,4-d]pyrimidin-3-yl)phenyl]acetonitrile

> <PUBCHEM_IUPAC_INCHI>
InChI=1S/C16H16N6/c1-10(2)22-16-13(15(18)19-9-20-16)14(21-22)12-5-3-4-11(8-12)6-7-17/h3-5,8-10H,6H2,1-2H3,(H2,18,19,20)

> <PUBCHEM_IUPAC_INCHIKEY>
LQUXOZIJMPWQAA-UHFFFAOYSA-N

> <PUBCHEM_XLOGP3_AA>
1.9

> <PUBCHEM_EXACT_MASS>
292.14364454

> <PUBCHEM_MOLECULAR_FORMULA>
C16H16N6

> <PUBCHEM_MOLECULAR_WEIGHT>
292.34

> <PUBCHEM_SMILES>
CC(C)N1C2=NC=NC(=C2C(=N1)C3=CC=CC(=C3)CC#N)N

> <PUBCHEM_OPENEYE_CAN_SMILES>
CC(C)N1C2=NC=NC(=C2C(=N1)C3=CC=CC(=C3)CC#N)N

> <PUBCHEM_OPENEYE_ISO_SMILES>
CC(C)N1C2=NC=NC(=C2C(=N1)C3=CC=CC(=C3)CC#N)N

> <PUBCHEM_CACTVS_TPSA>
93.4

> <PUBCHEM_MONOISOTOPIC_WEIGHT>
292.14364454

> <PUBCHEM_TOTAL_CHARGE>
0

> <PUBCHEM_HEAVY_ATOM_COUNT>
22

> <PUBCHEM_ATOM_DEF_STEREO_COUNT>
0

> <PUBCHEM_ATOM_UDEF_STEREO_COUNT>
0

> <PUBCHEM_BOND_DEF_STEREO_COUNT>
0

> <PUBCHEM_BOND_UDEF_STEREO_COUNT>
0

> <PUBCHEM_ISOTOPIC_ATOM_COUNT>
0

> <PUBCHEM_COMPONENT_COUNT>
1

> <PUBCHEM_CACTVS_TAUTO_COUNT>
-1

> <PUBCHEM_COORDINATE_TYPE>
1
5
255

> <PUBCHEM_BONDANNOTATIONS>
1  2  8
1  8  8
11  15  8
11  16  8
15  17  8
16  19  8
17  20  8
19  20  8
2  10  8
3  18  8
3  8  8
4  14  8
4  18  8
8  9  8
9  10  8
9  14  8

$$$$
