49830989
  -OEChem-03202501462D

 22 23  0     0  0  0  0  0  0999 V2000
    5.1408   -1.0308    0.0000 S   0  0  0  0  0  0  0  0  0  0  0  0
    3.6418   -2.3320    0.0000 O   0  0  0  0  0  0  0  0  0  0  0  0
    6.4162    1.7418    0.0000 O   0  0  0  0  0  0  0  0  0  0  0  0
    4.7672    2.2716    0.0000 O   0  0  0  0  0  0  0  0  0  0  0  0
    3.4032    0.8887    0.0000 N   0  0  0  0  0  0  0  0  0  0  0  0
    2.4384   -1.1406    0.0000 N   0  0  0  0  0  0  0  0  0  0  0  0
    2.4294    0.6614    0.0000 C   0  0  0  0  0  0  0  0  0  0  0  0
    4.1881    0.2691    0.0000 C   0  0  0  0  0  0  0  0  0  0  0  0
    2.0000   -0.2418    0.0000 C   0  0  0  0  0  0  0  0  0  0  0  0
    4.1931   -0.7308    0.0000 C   0  0  0  0  0  0  0  0  0  0  0  0
    5.1328    0.5786    0.0000 C   0  0  0  0  0  0  0  0  0  0  0  0
    3.4144   -1.3582    0.0000 C   0  0  0  0  0  0  0  0  0  0  0  0
    5.7204   -0.2232    0.0000 C   0  0  0  0  0  0  0  0  0  0  0  0
    5.4387    1.5306    0.0000 C   0  0  0  0  0  0  0  0  0  0  0  0
    2.4263    1.2814    0.0000 H   0  0  0  0  0  0  0  0  0  0  0  0
    1.8242    0.7963    0.0000 H   0  0  0  0  0  0  0  0  0  0  0  0
    1.5133    0.1424    0.0000 H   0  0  0  0  0  0  0  0  0  0  0  0
    1.5172   -0.6307    0.0000 H   0  0  0  0  0  0  0  0  0  0  0  0
    3.5381    1.4939    0.0000 H   0  0  0  0  0  0  0  0  0  0  0  0
    2.0542   -1.6272    0.0000 H   0  0  0  0  0  0  0  0  0  0  0  0
    6.3404   -0.2201    0.0000 H   0  0  0  0  0  0  0  0  0  0  0  0
    6.6059    2.3320    0.0000 H   0  0  0  0  0  0  0  0  0  0  0  0
  1 10  1  0  0  0  0
  1 13  1  0  0  0  0
  2 12  2  0  0  0  0
  3 14  1  0  0  0  0
  3 22  1  0  0  0  0
  4 14  2  0  0  0  0
  5  7  1  0  0  0  0
  5  8  1  0  0  0  0
  5 19  1  0  0  0  0
  6  9  1  0  0  0  0
  6 12  1  0  0  0  0
  6 20  1  0  0  0  0
  7  9  1  0  0  0  0
  7 15  1  0  0  0  0
  7 16  1  0  0  0  0
  8 10  2  0  0  0  0
  8 11  1  0  0  0  0
  9 17  1  0  0  0  0
  9 18  1  0  0  0  0
 10 12  1  0  0  0  0
 11 13  2  0  0  0  0
 11 14  1  0  0  0  0
 13 21  1  0  0  0  0
M  END
> <PUBCHEM_COMPOUND_CID>
49830989

> <PUBCHEM_COMPOUND_CANONICALIZED>
1

> <PUBCHEM_CACTVS_COMPLEXITY>
271

> <PUBCHEM_CACTVS_HBOND_ACCEPTOR>
5

> <PUBCHEM_CACTVS_HBOND_DONOR>
3

> <PUBCHEM_CACTVS_ROTATABLE_BOND>
1

> <PUBCHEM_CACTVS_SUBSKEYS>
AAADccBzMABAAAAAAAAAAAAAAAAAASAAAAAAAAAABYAAAACxgAAAHgQQCAAADAjF2ASgyYLAAgiMAgXSWACDAIAlCBAAiJUITMgIZjrg1BGUUYxm1gHomcaYFwIMAAAAAAAAAAAAAAAAAAAAAAAAAAAAAA==

> <PUBCHEM_IUPAC_OPENEYE_NAME>
5-oxo-1,2,3,4-tetrahydrothieno[3,2-e][1,4]diazepine-8-carboxylic acid

> <PUBCHEM_IUPAC_CAS_NAME>
5-oxo-1,2,3,4-tetrahydrothieno[3,2-e][1,4]diazepine-8-carboxylic acid

> <PUBCHEM_IUPAC_NAME_MARKUP>
5-oxo-1,2,3,4-tetrahydrothieno[3,2-e][1,4]diazepine-8-carboxylic acid

> <PUBCHEM_IUPAC_NAME>
5-oxo-1,2,3,4-tetrahydrothieno[3,2-e][1,4]diazepine-8-carboxylic acid

> <PUBCHEM_IUPAC_SYSTEMATIC_NAME>
5-oxidanylidene-1,2,3,4-tetrahydrothieno[3,2-e][1,4]diazepine-8-carboxylic acid

> <PUBCHEM_IUPAC_TRADITIONAL_NAME>
5-keto-1,2,3,4-tetrahydrothieno[3,2-e][1,4]diazepine-8-carboxylic acid

> <PUBCHEM_IUPAC_INCHI>
InChI=1S/C8H8N2O3S/c11-7-6-5(9-1-2-10-7)4(3-14-6)8(12)13/h3,9H,1-2H2,(H,10,11)(H,12,13)

> <PUBCHEM_IUPAC_INCHIKEY>
XUWWMFMANNCOKB-UHFFFAOYSA-N

> <PUBCHEM_XLOGP3_AA>
0.5

> <PUBCHEM_EXACT_MASS>
212.02556330

> <PUBCHEM_MOLECULAR_FORMULA>
C8H8N2O3S

> <PUBCHEM_MOLECULAR_WEIGHT>
212.23

> <PUBCHEM_SMILES>
C1CNC(=O)C2=C(N1)C(=CS2)C(=O)O

> <PUBCHEM_OPENEYE_CAN_SMILES>
C1CNC(=O)C2=C(N1)C(=CS2)C(=O)O

> <PUBCHEM_OPENEYE_ISO_SMILES>
C1CNC(=O)C2=C(N1)C(=CS2)C(=O)O

> <PUBCHEM_CACTVS_TPSA>
107

> <PUBCHEM_MONOISOTOPIC_WEIGHT>
212.02556330

> <PUBCHEM_TOTAL_CHARGE>
0

> <PUBCHEM_HEAVY_ATOM_COUNT>
14

> <PUBCHEM_ATOM_DEF_STEREO_COUNT>
0

> <PUBCHEM_ATOM_UDEF_STEREO_COUNT>
0

> <PUBCHEM_BOND_DEF_STEREO_COUNT>
0

> <PUBCHEM_BOND_UDEF_STEREO_COUNT>
0

> <PUBCHEM_ISOTOPIC_ATOM_COUNT>
0

> <PUBCHEM_COMPONENT_COUNT>
1

> <PUBCHEM_CACTVS_TAUTO_COUNT>
-1

> <PUBCHEM_COORDINATE_TYPE>
1
5
255

> <PUBCHEM_BONDANNOTATIONS>
1  10  8
1  13  8
11  13  8
8  10  8
8  11  8

$$$$
