49830404
  -OEChem-03202503072D

 70 76  0     0  0  0  0  0  0999 V2000
   11.9851   -2.6849    0.0000 S   0  0  0  0  0  0  0  0  0  0  0  0
    5.0324    5.3443    0.0000 O   0  0  0  0  0  0  0  0  0  0  0  0
    5.0000   -2.7462    0.0000 O   0  0  0  0  0  0  0  0  0  0  0  0
    4.9391    3.5647    0.0000 N   0  0  0  0  0  0  0  0  0  0  0  0
   11.0388   -1.3802    0.0000 N   0  0  0  0  0  0  0  0  0  0  0  0
    7.5135    1.2468    0.0000 N   0  0  0  0  0  0  0  0  0  0  0  0
   10.0878   -2.6892    0.0000 N   0  0  0  0  0  0  0  0  0  0  0  0
    8.8006    0.0878    0.0000 N   0  0  0  0  0  0  0  0  0  0  0  0
    9.1607    1.7820    0.0000 N   0  0  0  0  0  0  0  0  0  0  0  0
    6.5000   -3.6122    0.0000 N   0  0  0  0  0  0  0  0  0  0  0  0
    3.3300    3.3956    0.0000 C   0  0  0  0  0  0  0  0  0  0  0  0
    4.1960    2.8956    0.0000 C   0  0  0  0  0  0  0  0  0  0  0  0
    3.5379    4.3737    0.0000 C   0  0  0  0  0  0  0  0  0  0  0  0
    4.5324    4.4783    0.0000 C   0  0  0  0  0  0  0  0  0  0  0  0
    5.9173    3.3568    0.0000 C   0  0  0  0  0  0  0  0  0  0  0  0
    6.2263    2.4057    0.0000 C   0  0  0  0  0  0  0  0  0  0  0  0
    6.5864    4.0999    0.0000 C   0  0  0  0  0  0  0  0  0  0  0  0
    7.2044    2.1978    0.0000 C   0  0  0  0  0  0  0  0  0  0  0  0
   10.0878   -1.0712    0.0000 C   0  0  0  0  0  0  0  0  0  0  0  0
    9.5000   -1.8802    0.0000 C   0  0  0  0  0  0  0  0  0  0  0  0
    7.5646    3.8920    0.0000 C   0  0  0  0  0  0  0  0  0  0  0  0
    7.8736    2.9410    0.0000 C   0  0  0  0  0  0  0  0  0  0  0  0
    8.5000   -1.8802    0.0000 C   0  0  0  0  0  0  0  0  0  0  0  0
    9.7788   -0.1201    0.0000 C   0  0  0  0  0  0  0  0  0  0  0  0
   11.0388   -2.3802    0.0000 C   0  0  0  0  0  0  0  0  0  0  0  0
    8.4916    1.0389    0.0000 C   0  0  0  0  0  0  0  0  0  0  0  0
   11.9851   -1.0754    0.0000 C   0  0  0  0  0  0  0  0  0  0  0  0
    8.0000   -2.7462    0.0000 C   0  0  0  0  0  0  0  0  0  0  0  0
    8.0000   -1.0142    0.0000 C   0  0  0  0  0  0  0  0  0  0  0  0
    7.0000   -2.7462    0.0000 C   0  0  0  0  0  0  0  0  0  0  0  0
   10.4479    0.6230    0.0000 C   0  0  0  0  0  0  0  0  0  0  0  0
   12.5687   -1.8802    0.0000 C   0  0  0  0  0  0  0  0  0  0  0  0
    7.0000   -1.0142    0.0000 C   0  0  0  0  0  0  0  0  0  0  0  0
    6.5000   -1.8802    0.0000 C   0  0  0  0  0  0  0  0  0  0  0  0
   10.1389    1.5741    0.0000 C   0  0  0  0  0  0  0  0  0  0  0  0
    5.0000   -4.4783    0.0000 C   0  0  0  0  0  0  0  0  0  0  0  0
    5.5000   -3.6122    0.0000 C   0  0  0  0  0  0  0  0  0  0  0  0
    4.0000   -4.4783    0.0000 C   0  0  0  0  0  0  0  0  0  0  0  0
    3.5000   -5.3443    0.0000 C   0  0  0  0  0  0  0  0  0  0  0  0
    3.5000   -3.6122    0.0000 C   0  0  0  0  0  0  0  0  0  0  0  0
    2.5000   -5.3443    0.0000 C   0  0  0  0  0  0  0  0  0  0  0  0
    2.5000   -3.6122    0.0000 C   0  0  0  0  0  0  0  0  0  0  0  0
    2.0000   -4.4783    0.0000 C   0  0  0  0  0  0  0  0  0  0  0  0
    2.7403    3.5872    0.0000 H   0  0  0  0  0  0  0  0  0  0  0  0
    3.0778    2.8292    0.0000 H   0  0  0  0  0  0  0  0  0  0  0  0
    3.8316    2.3940    0.0000 H   0  0  0  0  0  0  0  0  0  0  0  0
    4.6567    2.4807    0.0000 H   0  0  0  0  0  0  0  0  0  0  0  0
    3.5379    4.9937    0.0000 H   0  0  0  0  0  0  0  0  0  0  0  0
    2.9213    4.4385    0.0000 H   0  0  0  0  0  0  0  0  0  0  0  0
    5.8114    1.9450    0.0000 H   0  0  0  0  0  0  0  0  0  0  0  0
    6.3948    4.6896    0.0000 H   0  0  0  0  0  0  0  0  0  0  0  0
    7.9794    4.3528    0.0000 H   0  0  0  0  0  0  0  0  0  0  0  0
    8.4800    2.8121    0.0000 H   0  0  0  0  0  0  0  0  0  0  0  0
    7.0986    0.7860    0.0000 H   0  0  0  0  0  0  0  0  0  0  0  0
   12.1777   -0.4861    0.0000 H   0  0  0  0  0  0  0  0  0  0  0  0
    8.3100   -3.2831    0.0000 H   0  0  0  0  0  0  0  0  0  0  0  0
    8.3100   -0.4772    0.0000 H   0  0  0  0  0  0  0  0  0  0  0  0
   11.0544    0.4941    0.0000 H   0  0  0  0  0  0  0  0  0  0  0  0
   13.1887   -1.8802    0.0000 H   0  0  0  0  0  0  0  0  0  0  0  0
    6.6900   -0.4772    0.0000 H   0  0  0  0  0  0  0  0  0  0  0  0
    5.8800   -1.8802    0.0000 H   0  0  0  0  0  0  0  0  0  0  0  0
   10.5537    2.0348    0.0000 H   0  0  0  0  0  0  0  0  0  0  0  0
    6.8100   -4.1492    0.0000 H   0  0  0  0  0  0  0  0  0  0  0  0
    4.8923   -5.0888    0.0000 H   0  0  0  0  0  0  0  0  0  0  0  0
    5.5826   -4.6903    0.0000 H   0  0  0  0  0  0  0  0  0  0  0  0
    3.8100   -5.8812    0.0000 H   0  0  0  0  0  0  0  0  0  0  0  0
    3.8100   -3.0753    0.0000 H   0  0  0  0  0  0  0  0  0  0  0  0
    2.1900   -5.8812    0.0000 H   0  0  0  0  0  0  0  0  0  0  0  0
    2.1900   -3.0753    0.0000 H   0  0  0  0  0  0  0  0  0  0  0  0
    1.3800   -4.4783    0.0000 H   0  0  0  0  0  0  0  0  0  0  0  0
  1 25  1  0  0  0  0
  1 32  1  0  0  0  0
  2 14  2  0  0  0  0
  3 37  2  0  0  0  0
  4 12  1  0  0  0  0
  4 14  1  0  0  0  0
  4 15  1  0  0  0  0
  5 19  1  0  0  0  0
  5 25  1  0  0  0  0
  5 27  1  0  0  0  0
  6 18  1  0  0  0  0
  6 26  1  0  0  0  0
  6 54  1  0  0  0  0
  7 20  1  0  0  0  0
  7 25  2  0  0  0  0
  8 24  2  0  0  0  0
  8 26  1  0  0  0  0
  9 26  2  0  0  0  0
  9 35  1  0  0  0  0
 10 30  1  0  0  0  0
 10 37  1  0  0  0  0
 10 63  1  0  0  0  0
 11 12  1  0  0  0  0
 11 13  1  0  0  0  0
 11 44  1  0  0  0  0
 11 45  1  0  0  0  0
 12 46  1  0  0  0  0
 12 47  1  0  0  0  0
 13 14  1  0  0  0  0
 13 48  1  0  0  0  0
 13 49  1  0  0  0  0
 15 16  1  0  0  0  0
 15 17  2  0  0  0  0
 16 18  2  0  0  0  0
 16 50  1  0  0  0  0
 17 21  1  0  0  0  0
 17 51  1  0  0  0  0
 18 22  1  0  0  0  0
 19 20  2  0  0  0  0
 19 24  1  0  0  0  0
 20 23  1  0  0  0  0
 21 22  2  0  0  0  0
 21 52  1  0  0  0  0
 22 53  1  0  0  0  0
 23 28  2  0  0  0  0
 23 29  1  0  0  0  0
 24 31  1  0  0  0  0
 27 32  2  0  0  0  0
 27 55  1  0  0  0  0
 28 30  1  0  0  0  0
 28 56  1  0  0  0  0
 29 33  2  0  0  0  0
 29 57  1  0  0  0  0
 30 34  2  0  0  0  0
 31 35  2  0  0  0  0
 31 58  1  0  0  0  0
 32 59  1  0  0  0  0
 33 34  1  0  0  0  0
 33 60  1  0  0  0  0
 34 61  1  0  0  0  0
 35 62  1  0  0  0  0
 36 37  1  0  0  0  0
 36 38  1  0  0  0  0
 36 64  1  0  0  0  0
 36 65  1  0  0  0  0
 38 39  2  0  0  0  0
 38 40  1  0  0  0  0
 39 41  1  0  0  0  0
 39 66  1  0  0  0  0
 40 42  2  0  0  0  0
 40 67  1  0  0  0  0
 41 43  2  0  0  0  0
 41 68  1  0  0  0  0
 42 43  1  0  0  0  0
 42 69  1  0  0  0  0
 43 70  1  0  0  0  0
M  END
> <PUBCHEM_COMPOUND_CID>
49830404

> <PUBCHEM_COMPOUND_CANONICALIZED>
1

> <PUBCHEM_CACTVS_COMPLEXITY>
966

> <PUBCHEM_CACTVS_HBOND_ACCEPTOR>
7

> <PUBCHEM_CACTVS_HBOND_DONOR>
2

> <PUBCHEM_CACTVS_ROTATABLE_BOND>
8

> <PUBCHEM_CACTVS_SUBSKEYS>
AAADceB/sABAAAAAAAAAAAAAAAAAAWLFgAA8YMEAAAAWAAAB/AAAHgQQAAAADAjF3gS90ZfMGAisAzV3dACC8K1xGrhJ2C04dJiIaPLA3dGUJAholgLIyCcciMCOAAAAQAQAAAAAAACACAAAAAAAAAAAAA==

> <PUBCHEM_IUPAC_OPENEYE_NAME>
N-[3-[5-[2-[3-(2-oxopyrrolidin-1-yl)anilino]pyrimidin-4-yl]imidazo[2,1-b]thiazol-6-yl]phenyl]-2-phenyl-acetamide

> <PUBCHEM_IUPAC_CAS_NAME>
N-[3-[5-[2-[3-(2-oxo-1-pyrrolidinyl)anilino]-4-pyrimidinyl]-6-imidazo[2,1-b]thiazolyl]phenyl]-2-phenylacetamide

> <PUBCHEM_IUPAC_NAME_MARKUP>
<I>N</I>-[3-[5-[2-[3-(2-oxopyrrolidin-1-yl)anilino]pyrimidin-4-yl]imidazo[2,1-b][1,3]thiazol-6-yl]phenyl]-2-phenylacetamide

> <PUBCHEM_IUPAC_NAME>
N-[3-[5-[2-[3-(2-oxopyrrolidin-1-yl)anilino]pyrimidin-4-yl]imidazo[2,1-b][1,3]thiazol-6-yl]phenyl]-2-phenylacetamide

> <PUBCHEM_IUPAC_SYSTEMATIC_NAME>
N-[3-[5-[2-[[3-(2-oxidanylidenepyrrolidin-1-yl)phenyl]amino]pyrimidin-4-yl]imidazo[2,1-b][1,3]thiazol-6-yl]phenyl]-2-phenyl-ethanamide

> <PUBCHEM_IUPAC_TRADITIONAL_NAME>
N-[3-[5-[2-[3-(2-ketopyrrolidino)anilino]pyrimidin-4-yl]imidazo[2,1-b]thiazol-6-yl]phenyl]-2-phenyl-acetamide

> <PUBCHEM_IUPAC_INCHI>
InChI=1S/C33H27N7O2S/c41-28(19-22-7-2-1-3-8-22)35-24-10-4-9-23(20-24)30-31(40-17-18-43-33(40)38-30)27-14-15-34-32(37-27)36-25-11-5-12-26(21-25)39-16-6-13-29(39)42/h1-5,7-12,14-15,17-18,20-21H,6,13,16,19H2,(H,35,41)(H,34,36,37)

> <PUBCHEM_IUPAC_INCHIKEY>
NFMGZVPRGVERNN-UHFFFAOYSA-N

> <PUBCHEM_XLOGP3_AA>
5.6

> <PUBCHEM_EXACT_MASS>
585.19469430

> <PUBCHEM_MOLECULAR_FORMULA>
C33H27N7O2S

> <PUBCHEM_MOLECULAR_WEIGHT>
585.7

> <PUBCHEM_SMILES>
C1CC(=O)N(C1)C2=CC=CC(=C2)NC3=NC=CC(=N3)C4=C(N=C5N4C=CS5)C6=CC(=CC=C6)NC(=O)CC7=CC=CC=C7

> <PUBCHEM_OPENEYE_CAN_SMILES>
C1CC(=O)N(C1)C2=CC=CC(=C2)NC3=NC=CC(=N3)C4=C(N=C5N4C=CS5)C6=CC(=CC=C6)NC(=O)CC7=CC=CC=C7

> <PUBCHEM_OPENEYE_ISO_SMILES>
C1CC(=O)N(C1)C2=CC=CC(=C2)NC3=NC=CC(=N3)C4=C(N=C5N4C=CS5)C6=CC(=CC=C6)NC(=O)CC7=CC=CC=C7

> <PUBCHEM_CACTVS_TPSA>
133

> <PUBCHEM_MONOISOTOPIC_WEIGHT>
585.19469430

> <PUBCHEM_TOTAL_CHARGE>
0

> <PUBCHEM_HEAVY_ATOM_COUNT>
43

> <PUBCHEM_ATOM_DEF_STEREO_COUNT>
0

> <PUBCHEM_ATOM_UDEF_STEREO_COUNT>
0

> <PUBCHEM_BOND_DEF_STEREO_COUNT>
0

> <PUBCHEM_BOND_UDEF_STEREO_COUNT>
0

> <PUBCHEM_ISOTOPIC_ATOM_COUNT>
0

> <PUBCHEM_COMPONENT_COUNT>
1

> <PUBCHEM_CACTVS_TAUTO_COUNT>
-1

> <PUBCHEM_COORDINATE_TYPE>
1
5
255

> <PUBCHEM_BONDANNOTATIONS>
1  25  8
1  32  8
15  16  8
15  17  8
16  18  8
17  21  8
18  22  8
19  20  8
21  22  8
23  28  8
23  29  8
24  31  8
27  32  8
28  30  8
29  33  8
30  34  8
31  35  8
33  34  8
38  39  8
38  40  8
39  41  8
40  42  8
41  43  8
42  43  8
5  19  8
5  25  8
5  27  8
7  20  8
7  25  8
8  24  8
8  26  8
9  26  8
9  35  8

$$$$
