49830663
  -OEChem-03202502062D

 61 64  0     0  0  0  0  0  0999 V2000
    5.5717    1.1892    0.0000 O   0  0  0  0  0  0  0  0  0  0  0  0
    9.0635   -1.5474    0.0000 O   0  0  0  0  0  0  0  0  0  0  0  0
    5.4672   -1.8053    0.0000 N   0  0  0  0  0  0  0  0  0  0  0  0
    4.4890   -2.0132    0.0000 N   0  0  0  0  0  0  0  0  0  0  0  0
    6.4378   -0.3108    0.0000 N   0  0  0  0  0  0  0  0  0  0  0  0
    7.3038    1.1892    0.0000 N   0  0  0  0  0  0  0  0  0  0  0  0
    9.5987   -3.1947    0.0000 N   0  0  0  0  0  0  0  0  0  0  0  0
   12.0361   -4.2239    0.0000 N   0  0  0  0  0  0  0  0  0  0  0  0
    2.9945   -1.0426    0.0000 C   0  0  0  0  0  0  0  0  0  0  0  0
    3.9890   -1.1472    0.0000 C   0  0  0  0  0  0  0  0  0  0  0  0
    2.0000   -0.9381    0.0000 C   0  0  0  0  0  0  0  0  0  0  0  0
    2.8900   -2.0372    0.0000 C   0  0  0  0  0  0  0  0  0  0  0  0
    3.0990   -0.0481    0.0000 C   0  0  0  0  0  0  0  0  0  0  0  0
    4.6582   -0.4040    0.0000 C   0  0  0  0  0  0  0  0  0  0  0  0
    5.5717   -0.8108    0.0000 C   0  0  0  0  0  0  0  0  0  0  0  0
    6.2103   -2.4744    0.0000 C   0  0  0  0  0  0  0  0  0  0  0  0
    7.1614   -2.1654    0.0000 C   0  0  0  0  0  0  0  0  0  0  0  0
    6.0024   -3.4526    0.0000 C   0  0  0  0  0  0  0  0  0  0  0  0
    6.4378    0.6892    0.0000 C   0  0  0  0  0  0  0  0  0  0  0  0
    7.9045   -2.8345    0.0000 C   0  0  0  0  0  0  0  0  0  0  0  0
    7.3038    2.1892    0.0000 C   0  0  0  0  0  0  0  0  0  0  0  0
    6.7456   -4.1217    0.0000 C   0  0  0  0  0  0  0  0  0  0  0  0
    8.1698    2.6892    0.0000 C   0  0  0  0  0  0  0  0  0  0  0  0
    7.6966   -3.8127    0.0000 C   0  0  0  0  0  0  0  0  0  0  0  0
    8.1698    3.6892    0.0000 C   0  0  0  0  0  0  0  0  0  0  0  0
    6.4378    2.6892    0.0000 C   0  0  0  0  0  0  0  0  0  0  0  0
    8.8556   -2.5255    0.0000 C   0  0  0  0  0  0  0  0  0  0  0  0
    9.0637    2.1546    0.0000 C   0  0  0  0  0  0  0  0  0  0  0  0
    7.3038    4.1892    0.0000 C   0  0  0  0  0  0  0  0  0  0  0  0
    6.4378    3.6892    0.0000 C   0  0  0  0  0  0  0  0  0  0  0  0
    9.0637    4.2239    0.0000 C   0  0  0  0  0  0  0  0  0  0  0  0
    9.9698    2.6684    0.0000 C   0  0  0  0  0  0  0  0  0  0  0  0
    9.9698    3.7100    0.0000 C   0  0  0  0  0  0  0  0  0  0  0  0
   10.5498   -2.8856    0.0000 C   0  0  0  0  0  0  0  0  0  0  0  0
   11.2929   -3.5548    0.0000 C   0  0  0  0  0  0  0  0  0  0  0  0
    2.0648   -0.3215    0.0000 H   0  0  0  0  0  0  0  0  0  0  0  0
    1.3834   -0.8733    0.0000 H   0  0  0  0  0  0  0  0  0  0  0  0
    1.9352   -1.5547    0.0000 H   0  0  0  0  0  0  0  0  0  0  0  0
    2.2734   -1.9724    0.0000 H   0  0  0  0  0  0  0  0  0  0  0  0
    2.8252   -2.6538    0.0000 H   0  0  0  0  0  0  0  0  0  0  0  0
    3.5066   -2.1020    0.0000 H   0  0  0  0  0  0  0  0  0  0  0  0
    3.7156   -0.1129    0.0000 H   0  0  0  0  0  0  0  0  0  0  0  0
    3.1639    0.5685    0.0000 H   0  0  0  0  0  0  0  0  0  0  0  0
    2.4824    0.0167    0.0000 H   0  0  0  0  0  0  0  0  0  0  0  0
    4.5293    0.2024    0.0000 H   0  0  0  0  0  0  0  0  0  0  0  0
    6.9747   -0.6208    0.0000 H   0  0  0  0  0  0  0  0  0  0  0  0
    7.2903   -1.5590    0.0000 H   0  0  0  0  0  0  0  0  0  0  0  0
    5.4128   -3.6442    0.0000 H   0  0  0  0  0  0  0  0  0  0  0  0
    6.6167   -4.7282    0.0000 H   0  0  0  0  0  0  0  0  0  0  0  0
    7.8407    0.8792    0.0000 H   0  0  0  0  0  0  0  0  0  0  0  0
    8.1574   -4.2275    0.0000 H   0  0  0  0  0  0  0  0  0  0  0  0
    5.9008    2.3792    0.0000 H   0  0  0  0  0  0  0  0  0  0  0  0
    9.0566    1.5346    0.0000 H   0  0  0  0  0  0  0  0  0  0  0  0
    7.3038    4.8092    0.0000 H   0  0  0  0  0  0  0  0  0  0  0  0
    5.9008    3.9992    0.0000 H   0  0  0  0  0  0  0  0  0  0  0  0
    9.0566    4.8438    0.0000 H   0  0  0  0  0  0  0  0  0  0  0  0
   10.5055    2.3564    0.0000 H   0  0  0  0  0  0  0  0  0  0  0  0
   10.5055    4.0221    0.0000 H   0  0  0  0  0  0  0  0  0  0  0  0
    9.4698   -3.8011    0.0000 H   0  0  0  0  0  0  0  0  0  0  0  0
   11.0384   -2.5039    0.0000 H   0  0  0  0  0  0  0  0  0  0  0  0
   10.2587   -2.3382    0.0000 H   0  0  0  0  0  0  0  0  0  0  0  0
  1 19  2  0  0  0  0
  2 27  2  0  0  0  0
  3  4  1  0  0  0  0
  3 15  1  0  0  0  0
  3 16  1  0  0  0  0
  4 10  2  0  0  0  0
  5 15  1  0  0  0  0
  5 19  1  0  0  0  0
  5 46  1  0  0  0  0
  6 19  1  0  0  0  0
  6 21  1  0  0  0  0
  6 50  1  0  0  0  0
  7 27  1  0  0  0  0
  7 34  1  0  0  0  0
  7 59  1  0  0  0  0
  8 35  3  0  0  0  0
  9 10  1  0  0  0  0
  9 11  1  0  0  0  0
  9 12  1  0  0  0  0
  9 13  1  0  0  0  0
 10 14  1  0  0  0  0
 11 36  1  0  0  0  0
 11 37  1  0  0  0  0
 11 38  1  0  0  0  0
 12 39  1  0  0  0  0
 12 40  1  0  0  0  0
 12 41  1  0  0  0  0
 13 42  1  0  0  0  0
 13 43  1  0  0  0  0
 13 44  1  0  0  0  0
 14 15  2  0  0  0  0
 14 45  1  0  0  0  0
 16 17  1  0  0  0  0
 16 18  2  0  0  0  0
 17 20  2  0  0  0  0
 17 47  1  0  0  0  0
 18 22  1  0  0  0  0
 18 48  1  0  0  0  0
 20 24  1  0  0  0  0
 20 27  1  0  0  0  0
 21 23  1  0  0  0  0
 21 26  2  0  0  0  0
 22 24  2  0  0  0  0
 22 49  1  0  0  0  0
 23 25  1  0  0  0  0
 23 28  2  0  0  0  0
 24 51  1  0  0  0  0
 25 29  1  0  0  0  0
 25 31  2  0  0  0  0
 26 30  1  0  0  0  0
 26 52  1  0  0  0  0
 28 32  1  0  0  0  0
 28 53  1  0  0  0  0
 29 30  2  0  0  0  0
 29 54  1  0  0  0  0
 30 55  1  0  0  0  0
 31 33  1  0  0  0  0
 31 56  1  0  0  0  0
 32 33  2  0  0  0  0
 32 57  1  0  0  0  0
 33 58  1  0  0  0  0
 34 35  1  0  0  0  0
 34 60  1  0  0  0  0
 34 61  1  0  0  0  0
M  END
> <PUBCHEM_COMPOUND_CID>
49830663

> <PUBCHEM_COMPOUND_CANONICALIZED>
1

> <PUBCHEM_CACTVS_COMPLEXITY>
801

> <PUBCHEM_CACTVS_HBOND_ACCEPTOR>
4

> <PUBCHEM_CACTVS_HBOND_DONOR>
3

> <PUBCHEM_CACTVS_ROTATABLE_BOND>
6

> <PUBCHEM_CACTVS_SUBSKEYS>
AAADceB7sAAAAAAAAAAAAAAAAAAAAWAAAAAwYMAAAAAAAADB1AAAHgAYAAAADgjBngQz8NLIAAC6BydydACSBCMlAgAdmKE4ZNiIIHLA1dGEpQh4nwLIyacciICPgAAAQAASAAAAAACAACQAAAAAAAAAAA==

> <PUBCHEM_IUPAC_OPENEYE_NAME>
3-[3-tert-butyl-5-(1-naphthylcarbamoylamino)pyrazol-1-yl]-N-(cyanomethyl)benzamide

> <PUBCHEM_IUPAC_CAS_NAME>
3-[3-tert-butyl-5-[[(1-naphthalenylamino)-oxomethyl]amino]-1-pyrazolyl]-N-(cyanomethyl)benzamide

> <PUBCHEM_IUPAC_NAME_MARKUP>
3-[3-<I>tert</I>-butyl-5-(naphthalen-1-ylcarbamoylamino)pyrazol-1-yl]-<I>N</I>-(cyanomethyl)benzamide

> <PUBCHEM_IUPAC_NAME>
3-[3-tert-butyl-5-(naphthalen-1-ylcarbamoylamino)pyrazol-1-yl]-N-(cyanomethyl)benzamide

> <PUBCHEM_IUPAC_SYSTEMATIC_NAME>
3-[3-tert-butyl-5-(naphthalen-1-ylcarbamoylamino)pyrazol-1-yl]-N-(cyanomethyl)benzamide

> <PUBCHEM_IUPAC_TRADITIONAL_NAME>
3-[3-tert-butyl-5-(1-naphthylcarbamoylamino)pyrazol-1-yl]-N-(cyanomethyl)benzamide

> <PUBCHEM_IUPAC_INCHI>
InChI=1S/C27H26N6O2/c1-27(2,3)23-17-24(31-26(35)30-22-13-7-9-18-8-4-5-12-21(18)22)33(32-23)20-11-6-10-19(16-20)25(34)29-15-14-28/h4-13,16-17H,15H2,1-3H3,(H,29,34)(H2,30,31,35)

> <PUBCHEM_IUPAC_INCHIKEY>
DILZQOYOWSNWDQ-UHFFFAOYSA-N

> <PUBCHEM_XLOGP3_AA>
4.8

> <PUBCHEM_EXACT_MASS>
466.21172409

> <PUBCHEM_MOLECULAR_FORMULA>
C27H26N6O2

> <PUBCHEM_MOLECULAR_WEIGHT>
466.5

> <PUBCHEM_SMILES>
CC(C)(C)C1=NN(C(=C1)NC(=O)NC2=CC=CC3=CC=CC=C32)C4=CC=CC(=C4)C(=O)NCC#N

> <PUBCHEM_OPENEYE_CAN_SMILES>
CC(C)(C)C1=NN(C(=C1)NC(=O)NC2=CC=CC3=CC=CC=C32)C4=CC=CC(=C4)C(=O)NCC#N

> <PUBCHEM_OPENEYE_ISO_SMILES>
CC(C)(C)C1=NN(C(=C1)NC(=O)NC2=CC=CC3=CC=CC=C32)C4=CC=CC(=C4)C(=O)NCC#N

> <PUBCHEM_CACTVS_TPSA>
112

> <PUBCHEM_MONOISOTOPIC_WEIGHT>
466.21172409

> <PUBCHEM_TOTAL_CHARGE>
0

> <PUBCHEM_HEAVY_ATOM_COUNT>
35

> <PUBCHEM_ATOM_DEF_STEREO_COUNT>
0

> <PUBCHEM_ATOM_UDEF_STEREO_COUNT>
0

> <PUBCHEM_BOND_DEF_STEREO_COUNT>
0

> <PUBCHEM_BOND_UDEF_STEREO_COUNT>
0

> <PUBCHEM_ISOTOPIC_ATOM_COUNT>
0

> <PUBCHEM_COMPONENT_COUNT>
1

> <PUBCHEM_CACTVS_TAUTO_COUNT>
-1

> <PUBCHEM_COORDINATE_TYPE>
1
5
255

> <PUBCHEM_BONDANNOTATIONS>
10  14  8
14  15  8
16  17  8
16  18  8
17  20  8
18  22  8
20  24  8
21  23  8
21  26  8
22  24  8
23  25  8
23  28  8
25  29  8
25  31  8
26  30  8
28  32  8
29  30  8
3  15  8
3  4  8
31  33  8
32  33  8
4  10  8

$$$$
