49830544
  -OEChem-03202502542D

 45 48  0     0  0  0  0  0  0999 V2000
    6.8752   -2.5546    0.0000 O   0  0  0  0  0  0  0  0  0  0  0  0
    9.2071   -3.1794    0.0000 O   0  0  0  0  0  0  0  0  0  0  0  0
    3.5000    3.2415    0.0000 O   0  0  0  0  0  0  0  0  0  0  0  0
    7.5000   -0.2226    0.0000 N   0  0  0  0  0  0  0  0  0  0  0  0
    9.8320   -0.8474    0.0000 N   0  0  0  0  0  0  0  0  0  0  0  0
   13.3762   -2.6522    0.0000 N   0  0  0  0  0  0  0  0  0  0  0  0
   13.9599   -1.8474    0.0000 N   0  0  0  0  0  0  0  0  0  0  0  0
    3.5000    1.5094    0.0000 N   0  0  0  0  0  0  0  0  0  0  0  0
    8.0000   -1.0886    0.0000 C   0  0  0  0  0  0  0  0  0  0  0  0
    8.9659   -1.3474    0.0000 C   0  0  0  0  0  0  0  0  0  0  0  0
    6.5000   -0.2226    0.0000 C   0  0  0  0  0  0  0  0  0  0  0  0
    7.7412   -2.0546    0.0000 C   0  0  0  0  0  0  0  0  0  0  0  0
    8.7071   -2.3134    0.0000 C   0  0  0  0  0  0  0  0  0  0  0  0
   10.6980   -1.3474    0.0000 C   0  0  0  0  0  0  0  0  0  0  0  0
    6.0000    0.6434    0.0000 C   0  0  0  0  0  0  0  0  0  0  0  0
   12.4300   -1.3474    0.0000 C   0  0  0  0  0  0  0  0  0  0  0  0
   11.5640   -0.8474    0.0000 C   0  0  0  0  0  0  0  0  0  0  0  0
   12.4300   -2.3474    0.0000 C   0  0  0  0  0  0  0  0  0  0  0  0
   10.6980   -2.3474    0.0000 C   0  0  0  0  0  0  0  0  0  0  0  0
    5.0000    0.6434    0.0000 C   0  0  0  0  0  0  0  0  0  0  0  0
   11.5640   -2.8474    0.0000 C   0  0  0  0  0  0  0  0  0  0  0  0
    6.5000    1.5094    0.0000 C   0  0  0  0  0  0  0  0  0  0  0  0
    4.5000    1.5094    0.0000 C   0  0  0  0  0  0  0  0  0  0  0  0
   13.3762   -1.0427    0.0000 C   0  0  0  0  0  0  0  0  0  0  0  0
    6.0000    2.3755    0.0000 C   0  0  0  0  0  0  0  0  0  0  0  0
    5.0000    2.3755    0.0000 C   0  0  0  0  0  0  0  0  0  0  0  0
    3.0000    2.3755    0.0000 C   0  0  0  0  0  0  0  0  0  0  0  0
    2.0000    2.3755    0.0000 C   0  0  0  0  0  0  0  0  0  0  0  0
    5.9174   -0.4347    0.0000 H   0  0  0  0  0  0  0  0  0  0  0  0
    6.6077   -0.8332    0.0000 H   0  0  0  0  0  0  0  0  0  0  0  0
    7.8100    0.3143    0.0000 H   0  0  0  0  0  0  0  0  0  0  0  0
    9.8320   -0.2274    0.0000 H   0  0  0  0  0  0  0  0  0  0  0  0
   11.5640   -0.2274    0.0000 H   0  0  0  0  0  0  0  0  0  0  0  0
   10.1610   -2.6574    0.0000 H   0  0  0  0  0  0  0  0  0  0  0  0
    4.6900    0.1065    0.0000 H   0  0  0  0  0  0  0  0  0  0  0  0
   11.5640   -3.4674    0.0000 H   0  0  0  0  0  0  0  0  0  0  0  0
    7.1200    1.5094    0.0000 H   0  0  0  0  0  0  0  0  0  0  0  0
   13.5689   -0.4534    0.0000 H   0  0  0  0  0  0  0  0  0  0  0  0
   13.5689   -3.2415    0.0000 H   0  0  0  0  0  0  0  0  0  0  0  0
    6.3100    2.9124    0.0000 H   0  0  0  0  0  0  0  0  0  0  0  0
    4.6900    2.9124    0.0000 H   0  0  0  0  0  0  0  0  0  0  0  0
    3.1900    0.9725    0.0000 H   0  0  0  0  0  0  0  0  0  0  0  0
    2.0000    2.9955    0.0000 H   0  0  0  0  0  0  0  0  0  0  0  0
    1.3800    2.3755    0.0000 H   0  0  0  0  0  0  0  0  0  0  0  0
    2.0000    1.7555    0.0000 H   0  0  0  0  0  0  0  0  0  0  0  0
  1 12  2  0  0  0  0
  2 13  2  0  0  0  0
  3 27  2  0  0  0  0
  4  9  1  0  0  0  0
  4 11  1  0  0  0  0
  4 31  1  0  0  0  0
  5 10  1  0  0  0  0
  5 14  1  0  0  0  0
  5 32  1  0  0  0  0
  6  7  1  0  0  0  0
  6 18  1  0  0  0  0
  6 39  1  0  0  0  0
  7 24  2  0  0  0  0
  8 23  1  0  0  0  0
  8 27  1  0  0  0  0
  8 42  1  0  0  0  0
  9 10  2  0  0  0  0
  9 12  1  0  0  0  0
 10 13  1  0  0  0  0
 11 15  1  0  0  0  0
 11 29  1  0  0  0  0
 11 30  1  0  0  0  0
 12 13  1  0  0  0  0
 14 17  2  0  0  0  0
 14 19  1  0  0  0  0
 15 20  2  0  0  0  0
 15 22  1  0  0  0  0
 16 17  1  0  0  0  0
 16 18  2  0  0  0  0
 16 24  1  0  0  0  0
 17 33  1  0  0  0  0
 18 21  1  0  0  0  0
 19 21  2  0  0  0  0
 19 34  1  0  0  0  0
 20 23  1  0  0  0  0
 20 35  1  0  0  0  0
 21 36  1  0  0  0  0
 22 25  2  0  0  0  0
 22 37  1  0  0  0  0
 23 26  2  0  0  0  0
 24 38  1  0  0  0  0
 25 26  1  0  0  0  0
 25 40  1  0  0  0  0
 26 41  1  0  0  0  0
 27 28  1  0  0  0  0
 28 43  1  0  0  0  0
 28 44  1  0  0  0  0
 28 45  1  0  0  0  0
M  END
> <PUBCHEM_COMPOUND_CID>
49830544

> <PUBCHEM_COMPOUND_CANONICALIZED>
1

> <PUBCHEM_CACTVS_COMPLEXITY>
691

> <PUBCHEM_CACTVS_HBOND_ACCEPTOR>
6

> <PUBCHEM_CACTVS_HBOND_DONOR>
4

> <PUBCHEM_CACTVS_ROTATABLE_BOND>
6

> <PUBCHEM_CACTVS_SUBSKEYS>
AAADceB7sAAAAAAAAAAAAAAAAABAAWAAAAAwYAAAAAAAAFgB9AAAHgAYAAAADAzBngQ+wPLjAACqA7V3UACSBAAhggAYuaG4ZNgIIKrA0fGEpAhgnADIyUcQgAAOAACAQAACAAAAAQCAAAQAAAAAAAAAAA==

> <PUBCHEM_IUPAC_OPENEYE_NAME>
N-[3-[[[2-(1H-indazol-5-ylamino)-3,4-dioxo-cyclobuten-1-yl]amino]methyl]phenyl]acetamide

> <PUBCHEM_IUPAC_CAS_NAME>
N-[3-[[[2-(1H-indazol-5-ylamino)-3,4-dioxo-1-cyclobutenyl]amino]methyl]phenyl]acetamide

> <PUBCHEM_IUPAC_NAME_MARKUP>
<I>N</I>-[3-[[[2-(1<I>H</I>-indazol-5-ylamino)-3,4-dioxocyclobuten-1-yl]amino]methyl]phenyl]acetamide

> <PUBCHEM_IUPAC_NAME>
N-[3-[[[2-(1H-indazol-5-ylamino)-3,4-dioxocyclobuten-1-yl]amino]methyl]phenyl]acetamide

> <PUBCHEM_IUPAC_SYSTEMATIC_NAME>
N-[3-[[[2-(1H-indazol-5-ylamino)-3,4-bis(oxidanylidene)cyclobuten-1-yl]amino]methyl]phenyl]ethanamide

> <PUBCHEM_IUPAC_TRADITIONAL_NAME>
N-[3-[[[2-(1H-indazol-5-ylamino)-3,4-diketo-cyclobuten-1-yl]amino]methyl]phenyl]acetamide

> <PUBCHEM_IUPAC_INCHI>
InChI=1S/C20H17N5O3/c1-11(26)23-14-4-2-3-12(7-14)9-21-17-18(20(28)19(17)27)24-15-5-6-16-13(8-15)10-22-25-16/h2-8,10,21,24H,9H2,1H3,(H,22,25)(H,23,26)

> <PUBCHEM_IUPAC_INCHIKEY>
SHENEEFOURUIBP-UHFFFAOYSA-N

> <PUBCHEM_XLOGP3_AA>
1.8

> <PUBCHEM_EXACT_MASS>
375.13313942

> <PUBCHEM_MOLECULAR_FORMULA>
C20H17N5O3

> <PUBCHEM_MOLECULAR_WEIGHT>
375.4

> <PUBCHEM_SMILES>
CC(=O)NC1=CC=CC(=C1)CNC2=C(C(=O)C2=O)NC3=CC4=C(C=C3)NN=C4

> <PUBCHEM_OPENEYE_CAN_SMILES>
CC(=O)NC1=CC=CC(=C1)CNC2=C(C(=O)C2=O)NC3=CC4=C(C=C3)NN=C4

> <PUBCHEM_OPENEYE_ISO_SMILES>
CC(=O)NC1=CC=CC(=C1)CNC2=C(C(=O)C2=O)NC3=CC4=C(C=C3)NN=C4

> <PUBCHEM_CACTVS_TPSA>
116

> <PUBCHEM_MONOISOTOPIC_WEIGHT>
375.13313942

> <PUBCHEM_TOTAL_CHARGE>
0

> <PUBCHEM_HEAVY_ATOM_COUNT>
28

> <PUBCHEM_ATOM_DEF_STEREO_COUNT>
0

> <PUBCHEM_ATOM_UDEF_STEREO_COUNT>
0

> <PUBCHEM_BOND_DEF_STEREO_COUNT>
0

> <PUBCHEM_BOND_UDEF_STEREO_COUNT>
0

> <PUBCHEM_ISOTOPIC_ATOM_COUNT>
0

> <PUBCHEM_COMPONENT_COUNT>
1

> <PUBCHEM_CACTVS_TAUTO_COUNT>
-1

> <PUBCHEM_COORDINATE_TYPE>
1
5
255

> <PUBCHEM_BONDANNOTATIONS>
10  13  8
12  13  8
14  17  8
14  19  8
15  20  8
15  22  8
16  17  8
16  18  8
16  24  8
18  21  8
19  21  8
20  23  8
22  25  8
23  26  8
25  26  8
6  18  8
6  7  8
7  24  8
9  10  8
9  12  8

$$$$
