49830371
  -OEChem-03202502042D

 52 55  0     0  0  0  0  0  0999 V2000
    5.5443   -2.3680    0.0000 S   0  0  0  0  0  0  0  0  0  0  0  0
   11.3688    3.1241    0.0000 F   0  0  0  0  0  0  0  0  0  0  0  0
    4.5981   -4.0633    0.0000 O   0  0  0  0  0  0  0  0  0  0  0  0
    8.4333    2.5055    0.0000 O   0  0  0  0  0  0  0  0  0  0  0  0
    2.8660   -1.0633    0.0000 N   0  0  0  0  0  0  0  0  0  0  0  0
    2.8660   -4.0633    0.0000 N   0  0  0  0  0  0  0  0  0  0  0  0
    3.7320    0.4367    0.0000 N   0  0  0  0  0  0  0  0  0  0  0  0
    6.7870    3.0436    0.0000 N   0  0  0  0  0  0  0  0  0  0  0  0
    8.0761    4.2003    0.0000 N   0  0  0  0  0  0  0  0  0  0  0  0
    4.5981   -1.0633    0.0000 C   0  0  0  0  0  0  0  0  0  0  0  0
    5.5443   -0.7585    0.0000 C   0  0  0  0  0  0  0  0  0  0  0  0
    4.5981   -2.0633    0.0000 C   0  0  0  0  0  0  0  0  0  0  0  0
    5.8550    0.1920    0.0000 C   0  0  0  0  0  0  0  0  0  0  0  0
    3.7320   -2.5633    0.0000 C   0  0  0  0  0  0  0  0  0  0  0  0
    3.7320   -0.5633    0.0000 C   0  0  0  0  0  0  0  0  0  0  0  0
    6.1279   -1.5633    0.0000 C   0  0  0  0  0  0  0  0  0  0  0  0
    6.8335    0.3982    0.0000 C   0  0  0  0  0  0  0  0  0  0  0  0
    5.1871    0.9363    0.0000 C   0  0  0  0  0  0  0  0  0  0  0  0
    2.8660   -2.0633    0.0000 C   0  0  0  0  0  0  0  0  0  0  0  0
    6.4763    2.0930    0.0000 C   0  0  0  0  0  0  0  0  0  0  0  0
    3.7320   -3.5633    0.0000 C   0  0  0  0  0  0  0  0  0  0  0  0
    7.1441    1.3487    0.0000 C   0  0  0  0  0  0  0  0  0  0  0  0
    5.4978    1.8868    0.0000 C   0  0  0  0  0  0  0  0  0  0  0  0
    2.8660   -5.0633    0.0000 C   0  0  0  0  0  0  0  0  0  0  0  0
    7.7654    3.2498    0.0000 C   0  0  0  0  0  0  0  0  0  0  0  0
    2.0000   -5.5633    0.0000 C   0  0  0  0  0  0  0  0  0  0  0  0
    9.0546    4.4065    0.0000 C   0  0  0  0  0  0  0  0  0  0  0  0
    9.7225    3.6622    0.0000 C   0  0  0  0  0  0  0  0  0  0  0  0
    9.3653    5.3570    0.0000 C   0  0  0  0  0  0  0  0  0  0  0  0
   10.7010    3.8684    0.0000 C   0  0  0  0  0  0  0  0  0  0  0  0
   10.3438    5.5633    0.0000 C   0  0  0  0  0  0  0  0  0  0  0  0
   11.0116    4.8190    0.0000 C   0  0  0  0  0  0  0  0  0  0  0  0
    6.7479   -1.5633    0.0000 H   0  0  0  0  0  0  0  0  0  0  0  0
    7.2475   -0.0633    0.0000 H   0  0  0  0  0  0  0  0  0  0  0  0
    4.5804    0.8084    0.0000 H   0  0  0  0  0  0  0  0  0  0  0  0
    2.3291   -2.3733    0.0000 H   0  0  0  0  0  0  0  0  0  0  0  0
    7.7508    1.4766    0.0000 H   0  0  0  0  0  0  0  0  0  0  0  0
    5.0837    2.3483    0.0000 H   0  0  0  0  0  0  0  0  0  0  0  0
    2.3291   -3.7533    0.0000 H   0  0  0  0  0  0  0  0  0  0  0  0
    3.1951    0.7467    0.0000 H   0  0  0  0  0  0  0  0  0  0  0  0
    4.2690    0.7467    0.0000 H   0  0  0  0  0  0  0  0  0  0  0  0
    6.3729    3.5050    0.0000 H   0  0  0  0  0  0  0  0  0  0  0  0
    3.0781   -5.6459    0.0000 H   0  0  0  0  0  0  0  0  0  0  0  0
    3.4766   -4.9556    0.0000 H   0  0  0  0  0  0  0  0  0  0  0  0
    1.6900   -5.0263    0.0000 H   0  0  0  0  0  0  0  0  0  0  0  0
    1.4631   -5.8733    0.0000 H   0  0  0  0  0  0  0  0  0  0  0  0
    2.3100   -6.1002    0.0000 H   0  0  0  0  0  0  0  0  0  0  0  0
    7.6620    4.6618    0.0000 H   0  0  0  0  0  0  0  0  0  0  0  0
    9.5298    3.0729    0.0000 H   0  0  0  0  0  0  0  0  0  0  0  0
    8.9512    5.8185    0.0000 H   0  0  0  0  0  0  0  0  0  0  0  0
   10.5364    6.1526    0.0000 H   0  0  0  0  0  0  0  0  0  0  0  0
   11.6183    4.9468    0.0000 H   0  0  0  0  0  0  0  0  0  0  0  0
  1 12  1  0  0  0  0
  1 16  1  0  0  0  0
  2 30  1  0  0  0  0
  3 21  2  0  0  0  0
  4 25  2  0  0  0  0
  5 15  2  0  0  0  0
  5 19  1  0  0  0  0
  6 21  1  0  0  0  0
  6 24  1  0  0  0  0
  6 39  1  0  0  0  0
  7 15  1  0  0  0  0
  7 40  1  0  0  0  0
  7 41  1  0  0  0  0
  8 20  1  0  0  0  0
  8 25  1  0  0  0  0
  8 42  1  0  0  0  0
  9 25  1  0  0  0  0
  9 27  1  0  0  0  0
  9 48  1  0  0  0  0
 10 11  1  0  0  0  0
 10 12  2  0  0  0  0
 10 15  1  0  0  0  0
 11 13  1  0  0  0  0
 11 16  2  0  0  0  0
 12 14  1  0  0  0  0
 13 17  2  0  0  0  0
 13 18  1  0  0  0  0
 14 19  2  0  0  0  0
 14 21  1  0  0  0  0
 16 33  1  0  0  0  0
 17 22  1  0  0  0  0
 17 34  1  0  0  0  0
 18 23  2  0  0  0  0
 18 35  1  0  0  0  0
 19 36  1  0  0  0  0
 20 22  2  0  0  0  0
 20 23  1  0  0  0  0
 22 37  1  0  0  0  0
 23 38  1  0  0  0  0
 24 26  1  0  0  0  0
 24 43  1  0  0  0  0
 24 44  1  0  0  0  0
 26 45  1  0  0  0  0
 26 46  1  0  0  0  0
 26 47  1  0  0  0  0
 27 28  2  0  0  0  0
 27 29  1  0  0  0  0
 28 30  1  0  0  0  0
 28 49  1  0  0  0  0
 29 31  2  0  0  0  0
 29 50  1  0  0  0  0
 30 32  2  0  0  0  0
 31 32  1  0  0  0  0
 31 51  1  0  0  0  0
 32 52  1  0  0  0  0
M  END
> <PUBCHEM_COMPOUND_CID>
49830371

> <PUBCHEM_COMPOUND_CANONICALIZED>
1

> <PUBCHEM_CACTVS_COMPLEXITY>
662

> <PUBCHEM_CACTVS_HBOND_ACCEPTOR>
6

> <PUBCHEM_CACTVS_HBOND_DONOR>
4

> <PUBCHEM_CACTVS_ROTATABLE_BOND>
5

> <PUBCHEM_CACTVS_SUBSKEYS>
AAADceB7sQBAAAAAAAAAAAAAAAAAASAAAAA8YIAAAAAAAFgB/AAAHwQQAAAADAjF2gy/8dLIEAisAjd3dACDgKk1CjAI2LEoZNiIIHrg1ZGEIYxolgLoyecYicCOiAAAAAAAAAAQAAAAAAAAAAAAAAAAAA==

> <PUBCHEM_IUPAC_OPENEYE_NAME>
4-amino-N-ethyl-3-[4-[(3-fluorophenyl)carbamoylamino]phenyl]thieno[3,2-c]pyridine-7-carboxamide

> <PUBCHEM_IUPAC_CAS_NAME>
4-amino-N-ethyl-3-[4-[[(3-fluoroanilino)-oxomethyl]amino]phenyl]-7-thieno[3,2-c]pyridinecarboxamide

> <PUBCHEM_IUPAC_NAME_MARKUP>
4-amino-<I>N</I>-ethyl-3-[4-[(3-fluorophenyl)carbamoylamino]phenyl]thieno[3,2-c]pyridine-7-carboxamide

> <PUBCHEM_IUPAC_NAME>
4-amino-N-ethyl-3-[4-[(3-fluorophenyl)carbamoylamino]phenyl]thieno[3,2-c]pyridine-7-carboxamide

> <PUBCHEM_IUPAC_SYSTEMATIC_NAME>
4-azanyl-N-ethyl-3-[4-[(3-fluorophenyl)carbamoylamino]phenyl]thieno[3,2-c]pyridine-7-carboxamide

> <PUBCHEM_IUPAC_TRADITIONAL_NAME>
4-amino-N-ethyl-3-[4-[(3-fluorophenyl)carbamoylamino]phenyl]thieno[3,2-c]pyridine-7-carboxamide

> <PUBCHEM_IUPAC_INCHI>
InChI=1S/C23H20FN5O2S/c1-2-26-22(30)17-11-27-21(25)19-18(12-32-20(17)19)13-6-8-15(9-7-13)28-23(31)29-16-5-3-4-14(24)10-16/h3-12H,2H2,1H3,(H2,25,27)(H,26,30)(H2,28,29,31)

> <PUBCHEM_IUPAC_INCHIKEY>
OWFXKTOLFUQPDJ-UHFFFAOYSA-N

> <PUBCHEM_XLOGP3_AA>
3.5

> <PUBCHEM_EXACT_MASS>
449.13217423

> <PUBCHEM_MOLECULAR_FORMULA>
C23H20FN5O2S

> <PUBCHEM_MOLECULAR_WEIGHT>
449.5

> <PUBCHEM_SMILES>
CCNC(=O)C1=CN=C(C2=C1SC=C2C3=CC=C(C=C3)NC(=O)NC4=CC(=CC=C4)F)N

> <PUBCHEM_OPENEYE_CAN_SMILES>
CCNC(=O)C1=CN=C(C2=C1SC=C2C3=CC=C(C=C3)NC(=O)NC4=CC(=CC=C4)F)N

> <PUBCHEM_OPENEYE_ISO_SMILES>
CCNC(=O)C1=CN=C(C2=C1SC=C2C3=CC=C(C=C3)NC(=O)NC4=CC(=CC=C4)F)N

> <PUBCHEM_CACTVS_TPSA>
137

> <PUBCHEM_MONOISOTOPIC_WEIGHT>
449.13217423

> <PUBCHEM_TOTAL_CHARGE>
0

> <PUBCHEM_HEAVY_ATOM_COUNT>
32

> <PUBCHEM_ATOM_DEF_STEREO_COUNT>
0

> <PUBCHEM_ATOM_UDEF_STEREO_COUNT>
0

> <PUBCHEM_BOND_DEF_STEREO_COUNT>
0

> <PUBCHEM_BOND_UDEF_STEREO_COUNT>
0

> <PUBCHEM_ISOTOPIC_ATOM_COUNT>
0

> <PUBCHEM_COMPONENT_COUNT>
1

> <PUBCHEM_CACTVS_TAUTO_COUNT>
-1

> <PUBCHEM_COORDINATE_TYPE>
1
5
255

> <PUBCHEM_BONDANNOTATIONS>
1  12  8
1  16  8
10  11  8
10  12  8
10  15  8
11  16  8
12  14  8
13  17  8
13  18  8
14  19  8
17  22  8
18  23  8
20  22  8
20  23  8
27  28  8
27  29  8
28  30  8
29  31  8
30  32  8
31  32  8
5  15  8
5  19  8

$$$$
