24856363
  -OEChem-03202506332D

 50 53  0     0  0  0  0  0  0999 V2000
    3.0000   -2.7500    0.0000 O   0  0  0  0  0  0  0  0  0  0  0  0
    4.7320    3.2500    0.0000 O   0  0  0  0  0  0  0  0  0  0  0  0
    3.8660   -4.2500    0.0000 N   0  0  0  0  0  0  0  0  0  0  0  0
    6.4641    3.2500    0.0000 N   0  0  0  0  0  0  0  0  0  0  0  0
    7.3301    4.7500    0.0000 C   0  0  0  0  0  0  0  0  0  0  0  0
    8.3301    4.7500    0.0000 C   0  0  0  0  0  0  0  0  0  0  0  0
    7.8301    5.6160    0.0000 C   0  0  0  0  0  0  0  0  0  0  0  0
    3.0000   -4.7500    0.0000 C   0  0  0  0  0  0  0  0  0  0  0  0
    2.0000   -4.7500    0.0000 C   0  0  0  0  0  0  0  0  0  0  0  0
    2.5000   -5.6160    0.0000 C   0  0  0  0  0  0  0  0  0  0  0  0
    6.4641    4.2500    0.0000 C   0  0  0  0  0  0  0  0  0  0  0  0
    3.8660   -3.2500    0.0000 C   0  0  0  0  0  0  0  0  0  0  0  0
    5.5981    2.7500    0.0000 C   0  0  0  0  0  0  0  0  0  0  0  0
    4.7320   -2.7500    0.0000 C   0  0  0  0  0  0  0  0  0  0  0  0
    5.5981    1.7500    0.0000 C   0  0  0  0  0  0  0  0  0  0  0  0
    4.7320   -1.7500    0.0000 C   0  0  0  0  0  0  0  0  0  0  0  0
    5.5981   -1.2500    0.0000 C   0  0  0  0  0  0  0  0  0  0  0  0
    5.5981   -3.2500    0.0000 C   0  0  0  0  0  0  0  0  0  0  0  0
    5.5981   -0.2500    0.0000 C   0  0  0  0  0  0  0  0  0  0  0  0
    6.4641   -1.7500    0.0000 C   0  0  0  0  0  0  0  0  0  0  0  0
    4.7320    1.2500    0.0000 C   0  0  0  0  0  0  0  0  0  0  0  0
    6.4641    1.2500    0.0000 C   0  0  0  0  0  0  0  0  0  0  0  0
    6.4641   -2.7500    0.0000 C   0  0  0  0  0  0  0  0  0  0  0  0
    4.7320    0.2500    0.0000 C   0  0  0  0  0  0  0  0  0  0  0  0
    6.4641    0.2500    0.0000 C   0  0  0  0  0  0  0  0  0  0  0  0
    7.3301   -1.2500    0.0000 C   0  0  0  0  0  0  0  0  0  0  0  0
    7.4906    4.1511    0.0000 H   0  0  0  0  0  0  0  0  0  0  0  0
    8.4378    4.1394    0.0000 H   0  0  0  0  0  0  0  0  0  0  0  0
    8.9127    4.9620    0.0000 H   0  0  0  0  0  0  0  0  0  0  0  0
    8.3051    6.0146    0.0000 H   0  0  0  0  0  0  0  0  0  0  0  0
    7.3552    6.0146    0.0000 H   0  0  0  0  0  0  0  0  0  0  0  0
    2.8395   -4.1511    0.0000 H   0  0  0  0  0  0  0  0  0  0  0  0
    1.8923   -4.1394    0.0000 H   0  0  0  0  0  0  0  0  0  0  0  0
    1.4174   -4.9620    0.0000 H   0  0  0  0  0  0  0  0  0  0  0  0
    2.0250   -6.0146    0.0000 H   0  0  0  0  0  0  0  0  0  0  0  0
    2.9750   -6.0146    0.0000 H   0  0  0  0  0  0  0  0  0  0  0  0
    6.2520    4.8326    0.0000 H   0  0  0  0  0  0  0  0  0  0  0  0
    5.8535    4.1423    0.0000 H   0  0  0  0  0  0  0  0  0  0  0  0
    4.4030   -4.5600    0.0000 H   0  0  0  0  0  0  0  0  0  0  0  0
    7.0010    2.9400    0.0000 H   0  0  0  0  0  0  0  0  0  0  0  0
    4.1951   -1.4400    0.0000 H   0  0  0  0  0  0  0  0  0  0  0  0
    5.5981   -3.8700    0.0000 H   0  0  0  0  0  0  0  0  0  0  0  0
    4.1951    1.5600    0.0000 H   0  0  0  0  0  0  0  0  0  0  0  0
    7.0010    1.5600    0.0000 H   0  0  0  0  0  0  0  0  0  0  0  0
    7.0010   -3.0600    0.0000 H   0  0  0  0  0  0  0  0  0  0  0  0
    4.1951   -0.0600    0.0000 H   0  0  0  0  0  0  0  0  0  0  0  0
    7.0010   -0.0600    0.0000 H   0  0  0  0  0  0  0  0  0  0  0  0
    7.6401   -1.7869    0.0000 H   0  0  0  0  0  0  0  0  0  0  0  0
    7.8671   -0.9400    0.0000 H   0  0  0  0  0  0  0  0  0  0  0  0
    7.0201   -0.7131    0.0000 H   0  0  0  0  0  0  0  0  0  0  0  0
  1 12  2  0  0  0  0
  2 13  2  0  0  0  0
  3  8  1  0  0  0  0
  3 12  1  0  0  0  0
  3 39  1  0  0  0  0
  4 11  1  0  0  0  0
  4 13  1  0  0  0  0
  4 40  1  0  0  0  0
  5  6  1  0  0  0  0
  5  7  1  0  0  0  0
  5 11  1  0  0  0  0
  5 27  1  0  0  0  0
  6  7  1  0  0  0  0
  6 28  1  0  0  0  0
  6 29  1  0  0  0  0
  7 30  1  0  0  0  0
  7 31  1  0  0  0  0
  8  9  1  0  0  0  0
  8 10  1  0  0  0  0
  8 32  1  0  0  0  0
  9 10  1  0  0  0  0
  9 33  1  0  0  0  0
  9 34  1  0  0  0  0
 10 35  1  0  0  0  0
 10 36  1  0  0  0  0
 11 37  1  0  0  0  0
 11 38  1  0  0  0  0
 12 14  1  0  0  0  0
 13 15  1  0  0  0  0
 14 16  2  0  0  0  0
 14 18  1  0  0  0  0
 15 21  2  0  0  0  0
 15 22  1  0  0  0  0
 16 17  1  0  0  0  0
 16 41  1  0  0  0  0
 17 19  1  0  0  0  0
 17 20  2  0  0  0  0
 18 23  2  0  0  0  0
 18 42  1  0  0  0  0
 19 24  2  0  0  0  0
 19 25  1  0  0  0  0
 20 23  1  0  0  0  0
 20 26  1  0  0  0  0
 21 24  1  0  0  0  0
 21 43  1  0  0  0  0
 22 25  2  0  0  0  0
 22 44  1  0  0  0  0
 23 45  1  0  0  0  0
 24 46  1  0  0  0  0
 25 47  1  0  0  0  0
 26 48  1  0  0  0  0
 26 49  1  0  0  0  0
 26 50  1  0  0  0  0
M  END
> <PUBCHEM_COMPOUND_CID>
24856363

> <PUBCHEM_COMPOUND_CANONICALIZED>
1

> <PUBCHEM_CACTVS_COMPLEXITY>
518

> <PUBCHEM_CACTVS_HBOND_ACCEPTOR>
2

> <PUBCHEM_CACTVS_HBOND_DONOR>
2

> <PUBCHEM_CACTVS_ROTATABLE_BOND>
6

> <PUBCHEM_CACTVS_SUBSKEYS>
AAADceB7MAAAAAAAAAAAAAAAGDAAAAAAAAAwYAAAAAAAAAABQAAAHgAQAAAADSjBmAQyAILAAACIAiFSEACCAAAkAAAIiIEIBMgIIDKAlRGEIQhglgCIiYcYiMCOwAACAAAQAACAAAQAACAAAAAAAAAAAA==

> <PUBCHEM_IUPAC_OPENEYE_NAME>
N-cyclopropyl-3-[4-(cyclopropylmethylcarbamoyl)phenyl]-4-methyl-benzamide

> <PUBCHEM_IUPAC_CAS_NAME>
N-cyclopropyl-3-[4-[(cyclopropylmethylamino)-oxomethyl]phenyl]-4-methylbenzamide

> <PUBCHEM_IUPAC_NAME_MARKUP>
<I>N</I>-cyclopropyl-3-[4-(cyclopropylmethylcarbamoyl)phenyl]-4-methylbenzamide

> <PUBCHEM_IUPAC_NAME>
N-cyclopropyl-3-[4-(cyclopropylmethylcarbamoyl)phenyl]-4-methylbenzamide

> <PUBCHEM_IUPAC_SYSTEMATIC_NAME>
N-cyclopropyl-3-[4-(cyclopropylmethylcarbamoyl)phenyl]-4-methyl-benzamide

> <PUBCHEM_IUPAC_TRADITIONAL_NAME>
N-cyclopropyl-3-[4-(cyclopropylmethylcarbamoyl)phenyl]-4-methyl-benzamide

> <PUBCHEM_IUPAC_INCHI>
InChI=1S/C22H24N2O2/c1-14-2-5-18(22(26)24-19-10-11-19)12-20(14)16-6-8-17(9-7-16)21(25)23-13-15-3-4-15/h2,5-9,12,15,19H,3-4,10-11,13H2,1H3,(H,23,25)(H,24,26)

> <PUBCHEM_IUPAC_INCHIKEY>
BOPSUAHGQHFKGG-UHFFFAOYSA-N

> <PUBCHEM_XLOGP3_AA>
3.8

> <PUBCHEM_EXACT_MASS>
348.183778013

> <PUBCHEM_MOLECULAR_FORMULA>
C22H24N2O2

> <PUBCHEM_MOLECULAR_WEIGHT>
348.4

> <PUBCHEM_SMILES>
CC1=C(C=C(C=C1)C(=O)NC2CC2)C3=CC=C(C=C3)C(=O)NCC4CC4

> <PUBCHEM_OPENEYE_CAN_SMILES>
CC1=C(C=C(C=C1)C(=O)NC2CC2)C3=CC=C(C=C3)C(=O)NCC4CC4

> <PUBCHEM_OPENEYE_ISO_SMILES>
CC1=C(C=C(C=C1)C(=O)NC2CC2)C3=CC=C(C=C3)C(=O)NCC4CC4

> <PUBCHEM_CACTVS_TPSA>
58.2

> <PUBCHEM_MONOISOTOPIC_WEIGHT>
348.183778013

> <PUBCHEM_TOTAL_CHARGE>
0

> <PUBCHEM_HEAVY_ATOM_COUNT>
26

> <PUBCHEM_ATOM_DEF_STEREO_COUNT>
0

> <PUBCHEM_ATOM_UDEF_STEREO_COUNT>
0

> <PUBCHEM_BOND_DEF_STEREO_COUNT>
0

> <PUBCHEM_BOND_UDEF_STEREO_COUNT>
0

> <PUBCHEM_ISOTOPIC_ATOM_COUNT>
0

> <PUBCHEM_COMPONENT_COUNT>
1

> <PUBCHEM_CACTVS_TAUTO_COUNT>
-1

> <PUBCHEM_COORDINATE_TYPE>
1
5
255

> <PUBCHEM_BONDANNOTATIONS>
14  16  8
14  18  8
15  21  8
15  22  8
16  17  8
17  20  8
18  23  8
19  24  8
19  25  8
20  23  8
21  24  8
22  25  8

$$$$
