9999186
  -OEChem-03202500312D

 73 73  0     1  0  0  0  0  0999 V2000
    2.5989   -5.2658    0.0000 O   0  0  0  0  0  0  0  0  0  0  0  0
    2.8577   -8.6460    0.0000 O   0  0  0  0  0  0  0  0  0  0  0  0
    4.3060   -6.9729    0.0000 N   0  0  0  0  0  0  0  0  0  0  0  0
    4.3060   -5.9729    0.0000 C   0  0  2  0  0  0  0  0  0  0  0  0
    3.3060   -5.9729    0.0000 C   0  0  2  0  0  0  0  0  0  0  0  0
    3.3060   -6.9729    0.0000 C   0  0  2  0  0  0  0  0  0  0  0  0
    5.0131   -5.2658    0.0000 C   0  0  0  0  0  0  0  0  0  0  0  0
    4.7543   -4.2999    0.0000 C   0  0  0  0  0  0  0  0  0  0  0  0
    2.5989   -7.6800    0.0000 C   0  0  0  0  0  0  0  0  0  0  0  0
    5.4614   -3.5928    0.0000 C   0  0  0  0  0  0  0  0  0  0  0  0
    5.2026   -2.6269    0.0000 C   0  0  0  0  0  0  0  0  0  0  0  0
    5.9097   -1.9198    0.0000 C   0  0  0  0  0  0  0  0  0  0  0  0
    5.6508   -0.9538    0.0000 C   0  0  0  0  0  0  0  0  0  0  0  0
    6.9957    4.0653    0.0000 C   0  0  3  0  0  0  0  0  0  0  0  0
    7.2545    3.0993    0.0000 C   0  0  0  0  0  0  0  0  0  0  0  0
    6.3580   -0.2467    0.0000 C   0  0  0  0  0  0  0  0  0  0  0  0
    6.5474    2.3922    0.0000 C   0  0  0  0  0  0  0  0  0  0  0  0
    6.0991    0.7192    0.0000 C   0  0  0  0  0  0  0  0  0  0  0  0
    6.8062    1.4263    0.0000 C   0  0  0  0  0  0  0  0  0  0  0  0
    7.7028    4.7724    0.0000 C   0  0  0  0  0  0  0  0  0  0  0  0
    7.4440    5.7383    0.0000 C   0  0  0  0  0  0  0  0  0  0  0  0
    6.0298    4.3241    0.0000 C   0  0  0  0  0  0  0  0  0  0  0  0
    8.1511    6.4454    0.0000 C   0  0  0  0  0  0  0  0  0  0  0  0
    7.8923    7.4113    0.0000 C   0  0  0  0  0  0  0  0  0  0  0  0
    8.5994    8.1184    0.0000 C   0  0  0  0  0  0  0  0  0  0  0  0
    8.3406    9.0844    0.0000 C   0  0  0  0  0  0  0  0  0  0  0  0
    4.8788   -6.2102    0.0000 H   0  0  0  0  0  0  0  0  0  0  0  0
    3.5432   -5.4001    0.0000 H   0  0  0  0  0  0  0  0  0  0  0  0
    3.5432   -7.5457    0.0000 H   0  0  0  0  0  0  0  0  0  0  0  0
    4.7444   -7.4113    0.0000 H   0  0  0  0  0  0  0  0  0  0  0  0
    5.3687   -5.7737    0.0000 H   0  0  0  0  0  0  0  0  0  0  0  0
    5.5750   -5.0038    0.0000 H   0  0  0  0  0  0  0  0  0  0  0  0
    4.3986   -3.7920    0.0000 H   0  0  0  0  0  0  0  0  0  0  0  0
    4.1924   -4.5619    0.0000 H   0  0  0  0  0  0  0  0  0  0  0  0
    2.2433   -7.1722    0.0000 H   0  0  0  0  0  0  0  0  0  0  0  0
    2.0370   -7.9421    0.0000 H   0  0  0  0  0  0  0  0  0  0  0  0
    5.8170   -4.1007    0.0000 H   0  0  0  0  0  0  0  0  0  0  0  0
    6.0233   -3.3308    0.0000 H   0  0  0  0  0  0  0  0  0  0  0  0
    2.0000   -5.4263    0.0000 H   0  0  0  0  0  0  0  0  0  0  0  0
    4.8469   -2.1190    0.0000 H   0  0  0  0  0  0  0  0  0  0  0  0
    4.6406   -2.8889    0.0000 H   0  0  0  0  0  0  0  0  0  0  0  0
    6.2653   -2.4276    0.0000 H   0  0  0  0  0  0  0  0  0  0  0  0
    6.4716   -1.6577    0.0000 H   0  0  0  0  0  0  0  0  0  0  0  0
    5.2952   -0.4460    0.0000 H   0  0  0  0  0  0  0  0  0  0  0  0
    5.0889   -1.2159    0.0000 H   0  0  0  0  0  0  0  0  0  0  0  0
    6.8352    4.6641    0.0000 H   0  0  0  0  0  0  0  0  0  0  0  0
    7.6101    2.5915    0.0000 H   0  0  0  0  0  0  0  0  0  0  0  0
    7.8164    3.3614    0.0000 H   0  0  0  0  0  0  0  0  0  0  0  0
    6.7136   -0.7546    0.0000 H   0  0  0  0  0  0  0  0  0  0  0  0
    6.9199    0.0153    0.0000 H   0  0  0  0  0  0  0  0  0  0  0  0
    2.4193   -9.0844    0.0000 H   0  0  0  0  0  0  0  0  0  0  0  0
    6.1918    2.9001    0.0000 H   0  0  0  0  0  0  0  0  0  0  0  0
    5.9855    2.1302    0.0000 H   0  0  0  0  0  0  0  0  0  0  0  0
    5.7435    1.2271    0.0000 H   0  0  0  0  0  0  0  0  0  0  0  0
    5.5372    0.4572    0.0000 H   0  0  0  0  0  0  0  0  0  0  0  0
    7.1619    0.9184    0.0000 H   0  0  0  0  0  0  0  0  0  0  0  0
    7.3682    1.6883    0.0000 H   0  0  0  0  0  0  0  0  0  0  0  0
    8.0584    4.2645    0.0000 H   0  0  0  0  0  0  0  0  0  0  0  0
    8.2647    5.0344    0.0000 H   0  0  0  0  0  0  0  0  0  0  0  0
    7.0884    6.2462    0.0000 H   0  0  0  0  0  0  0  0  0  0  0  0
    6.8821    5.4763    0.0000 H   0  0  0  0  0  0  0  0  0  0  0  0
    6.1902    4.9230    0.0000 H   0  0  0  0  0  0  0  0  0  0  0  0
    5.4309    4.4845    0.0000 H   0  0  0  0  0  0  0  0  0  0  0  0
    5.8693    3.7252    0.0000 H   0  0  0  0  0  0  0  0  0  0  0  0
    8.5067    5.9375    0.0000 H   0  0  0  0  0  0  0  0  0  0  0  0
    8.7130    6.7074    0.0000 H   0  0  0  0  0  0  0  0  0  0  0  0
    7.5367    7.9192    0.0000 H   0  0  0  0  0  0  0  0  0  0  0  0
    7.3304    7.1493    0.0000 H   0  0  0  0  0  0  0  0  0  0  0  0
    8.9550    7.6106    0.0000 H   0  0  0  0  0  0  0  0  0  0  0  0
    9.1613    8.3805    0.0000 H   0  0  0  0  0  0  0  0  0  0  0  0
    8.9394    9.2448    0.0000 H   0  0  0  0  0  0  0  0  0  0  0  0
    8.1801    9.6832    0.0000 H   0  0  0  0  0  0  0  0  0  0  0  0
    7.7417    8.9239    0.0000 H   0  0  0  0  0  0  0  0  0  0  0  0
  5  1  1  6  0  0  0
  1 39  1  0  0  0  0
  2  9  1  0  0  0  0
  2 51  1  0  0  0  0
  3  4  1  0  0  0  0
  3  6  1  0  0  0  0
  3 30  1  0  0  0  0
  4  5  1  0  0  0  0
  4  7  1  6  0  0  0
  4 27  1  0  0  0  0
  5  6  1  0  0  0  0
  5 28  1  0  0  0  0
  6  9  1  1  0  0  0
  6 29  1  0  0  0  0
  7  8  1  0  0  0  0
  7 31  1  0  0  0  0
  7 32  1  0  0  0  0
  8 10  1  0  0  0  0
  8 33  1  0  0  0  0
  8 34  1  0  0  0  0
  9 35  1  0  0  0  0
  9 36  1  0  0  0  0
 10 11  1  0  0  0  0
 10 37  1  0  0  0  0
 10 38  1  0  0  0  0
 11 12  1  0  0  0  0
 11 40  1  0  0  0  0
 11 41  1  0  0  0  0
 12 13  1  0  0  0  0
 12 42  1  0  0  0  0
 12 43  1  0  0  0  0
 13 16  1  0  0  0  0
 13 44  1  0  0  0  0
 13 45  1  0  0  0  0
 14 15  1  0  0  0  0
 14 20  1  0  0  0  0
 14 22  1  0  0  0  0
 14 46  1  0  0  0  0
 15 17  1  0  0  0  0
 15 47  1  0  0  0  0
 15 48  1  0  0  0  0
 16 18  1  0  0  0  0
 16 49  1  0  0  0  0
 16 50  1  0  0  0  0
 17 19  1  0  0  0  0
 17 52  1  0  0  0  0
 17 53  1  0  0  0  0
 18 19  1  0  0  0  0
 18 54  1  0  0  0  0
 18 55  1  0  0  0  0
 19 56  1  0  0  0  0
 19 57  1  0  0  0  0
 20 21  1  0  0  0  0
 20 58  1  0  0  0  0
 20 59  1  0  0  0  0
 21 23  1  0  0  0  0
 21 60  1  0  0  0  0
 21 61  1  0  0  0  0
 22 62  1  0  0  0  0
 22 63  1  0  0  0  0
 22 64  1  0  0  0  0
 23 24  1  0  0  0  0
 23 65  1  0  0  0  0
 23 66  1  0  0  0  0
 24 25  1  0  0  0  0
 24 67  1  0  0  0  0
 24 68  1  0  0  0  0
 25 26  1  0  0  0  0
 25 69  1  0  0  0  0
 25 70  1  0  0  0  0
 26 71  1  0  0  0  0
 26 72  1  0  0  0  0
 26 73  1  0  0  0  0
M  END
> <PUBCHEM_COMPOUND_CID>
9999186

> <PUBCHEM_COMPOUND_CANONICALIZED>
1

> <PUBCHEM_CACTVS_COMPLEXITY>
311

> <PUBCHEM_CACTVS_HBOND_ACCEPTOR>
3

> <PUBCHEM_CACTVS_HBOND_DONOR>
3

> <PUBCHEM_CACTVS_ROTATABLE_BOND>
18

> <PUBCHEM_CACTVS_SUBSKEYS>
AAADcfB6MAAAAAAAAAAAAAAAAABYAAAAAAAAAAAAAAAAAAAAAAAAHgAQCAAADTzhgAYCAALAAgAAAAAAAAAAAAAAAAAAAIAIAAACEAIAgAAEQAAFEACQAAGwwOAOAAAAAAAAAAAAAAAAAAAAAAAAAAAAAA==

> <PUBCHEM_IUPAC_OPENEYE_NAME>
(2S,3R,4S)-2-(hydroxymethyl)-4-(12-methyloctadecyl)azetidin-3-ol

> <PUBCHEM_IUPAC_CAS_NAME>
(2S,3R,4S)-2-(hydroxymethyl)-4-(12-methyloctadecyl)-3-azetidinol

> <PUBCHEM_IUPAC_NAME_MARKUP>
(2<I>S</I>,3<I>R</I>,4<I>S</I>)-2-(hydroxymethyl)-4-(12-methyloctadecyl)azetidin-3-ol

> <PUBCHEM_IUPAC_NAME>
(2S,3R,4S)-2-(hydroxymethyl)-4-(12-methyloctadecyl)azetidin-3-ol

> <PUBCHEM_IUPAC_SYSTEMATIC_NAME>
(2S,3R,4S)-2-(hydroxymethyl)-4-(12-methyloctadecyl)azetidin-3-ol

> <PUBCHEM_IUPAC_TRADITIONAL_NAME>
(2S,3R,4S)-2-(12-methyloctadecyl)-4-methylol-azetidin-3-ol

> <PUBCHEM_IUPAC_INCHI>
InChI=1S/C23H47NO2/c1-3-4-5-13-16-20(2)17-14-11-9-7-6-8-10-12-15-18-21-23(26)22(19-25)24-21/h20-26H,3-19H2,1-2H3/t20?,21-,22-,23+/m0/s1

> <PUBCHEM_IUPAC_INCHIKEY>
MXSVVKSZJQKNBC-AVAPBHFXSA-N

> <PUBCHEM_XLOGP3_AA>
8.6

> <PUBCHEM_EXACT_MASS>
369.360679742

> <PUBCHEM_MOLECULAR_FORMULA>
C23H47NO2

> <PUBCHEM_MOLECULAR_WEIGHT>
369.6

> <PUBCHEM_SMILES>
CCCCCCC(C)CCCCCCCCCCC[C@H]1[C@H]([C@@H](N1)CO)O

> <PUBCHEM_OPENEYE_CAN_SMILES>
CCCCCCC(C)CCCCCCCCCCCC1C(C(N1)CO)O

> <PUBCHEM_OPENEYE_ISO_SMILES>
CCCCCCC(C)CCCCCCCCCCC[C@H]1[C@H]([C@@H](N1)CO)O

> <PUBCHEM_CACTVS_TPSA>
52.5

> <PUBCHEM_MONOISOTOPIC_WEIGHT>
369.360679742

> <PUBCHEM_TOTAL_CHARGE>
0

> <PUBCHEM_HEAVY_ATOM_COUNT>
26

> <PUBCHEM_ATOM_DEF_STEREO_COUNT>
3

> <PUBCHEM_ATOM_UDEF_STEREO_COUNT>
1

> <PUBCHEM_BOND_DEF_STEREO_COUNT>
0

> <PUBCHEM_BOND_UDEF_STEREO_COUNT>
0

> <PUBCHEM_ISOTOPIC_ATOM_COUNT>
0

> <PUBCHEM_COMPONENT_COUNT>
1

> <PUBCHEM_CACTVS_TAUTO_COUNT>
-1

> <PUBCHEM_COORDINATE_TYPE>
1
5
255

> <PUBCHEM_BONDANNOTATIONS>
5  1  6
14  22  3
4  7  6
6  9  5

$$$$
