766949
  -OEChem-03202504572D

 40 43  0     0  0  0  0  0  0999 V2000
    2.1953   -1.2200    0.0000 S   0  0  0  0  0  0  0  0  0  0  0  0
    4.7320    0.3636    0.0000 O   0  0  0  0  0  0  0  0  0  0  0  0
    3.0000    0.3636    0.0000 N   0  0  0  0  0  0  0  0  0  0  0  0
    5.7058   -0.5987    0.0000 N   0  0  0  0  0  0  0  0  0  0  0  0
    3.5000   -3.8983    0.0000 C   0  0  0  0  0  0  0  0  0  0  0  0
    2.5000   -3.8983    0.0000 C   0  0  0  0  0  0  0  0  0  0  0  0
    4.0000   -3.0322    0.0000 C   0  0  0  0  0  0  0  0  0  0  0  0
    2.0000   -3.0322    0.0000 C   0  0  0  0  0  0  0  0  0  0  0  0
    3.5000   -2.1662    0.0000 C   0  0  0  0  0  0  0  0  0  0  0  0
    2.5000   -2.1662    0.0000 C   0  0  0  0  0  0  0  0  0  0  0  0
    3.8047   -1.2200    0.0000 C   0  0  0  0  0  0  0  0  0  0  0  0
    3.0000   -0.6364    0.0000 C   0  0  0  0  0  0  0  0  0  0  0  0
    3.8660    0.8636    0.0000 C   0  0  0  0  0  0  0  0  0  0  0  0
    3.8660    1.8636    0.0000 C   0  0  0  0  0  0  0  0  0  0  0  0
    4.7552   -0.9093    0.0000 C   0  0  0  0  0  0  0  0  0  0  0  0
    4.7320    2.3636    0.0000 C   0  0  0  0  0  0  0  0  0  0  0  0
    4.7320    3.3636    0.0000 C   0  0  0  0  0  0  0  0  0  0  0  0
    3.0000    2.3636    0.0000 C   0  0  0  0  0  0  0  0  0  0  0  0
    5.6260    1.8290    0.0000 C   0  0  0  0  0  0  0  0  0  0  0  0
    3.8660    3.8636    0.0000 C   0  0  0  0  0  0  0  0  0  0  0  0
    3.0000    3.3636    0.0000 C   0  0  0  0  0  0  0  0  0  0  0  0
    5.6260    3.8983    0.0000 C   0  0  0  0  0  0  0  0  0  0  0  0
    6.5321    2.3428    0.0000 C   0  0  0  0  0  0  0  0  0  0  0  0
    6.5321    3.3844    0.0000 C   0  0  0  0  0  0  0  0  0  0  0  0
    3.3923   -4.5088    0.0000 H   0  0  0  0  0  0  0  0  0  0  0  0
    4.0826   -4.1103    0.0000 H   0  0  0  0  0  0  0  0  0  0  0  0
    1.9174   -4.1103    0.0000 H   0  0  0  0  0  0  0  0  0  0  0  0
    2.6077   -4.5088    0.0000 H   0  0  0  0  0  0  0  0  0  0  0  0
    4.4750   -3.4308    0.0000 H   0  0  0  0  0  0  0  0  0  0  0  0
    4.4750   -2.6337    0.0000 H   0  0  0  0  0  0  0  0  0  0  0  0
    1.5250   -2.6337    0.0000 H   0  0  0  0  0  0  0  0  0  0  0  0
    1.5250   -3.4308    0.0000 H   0  0  0  0  0  0  0  0  0  0  0  0
    2.4631    0.6736    0.0000 H   0  0  0  0  0  0  0  0  0  0  0  0
    2.4631    2.0536    0.0000 H   0  0  0  0  0  0  0  0  0  0  0  0
    5.6188    1.2090    0.0000 H   0  0  0  0  0  0  0  0  0  0  0  0
    3.8660    4.4836    0.0000 H   0  0  0  0  0  0  0  0  0  0  0  0
    2.4631    3.6736    0.0000 H   0  0  0  0  0  0  0  0  0  0  0  0
    5.6188    4.5182    0.0000 H   0  0  0  0  0  0  0  0  0  0  0  0
    7.0678    2.0307    0.0000 H   0  0  0  0  0  0  0  0  0  0  0  0
    7.0678    3.6965    0.0000 H   0  0  0  0  0  0  0  0  0  0  0  0
  1 10  1  0  0  0  0
  1 12  1  0  0  0  0
  2 13  2  0  0  0  0
  3 12  1  0  0  0  0
  3 13  1  0  0  0  0
  3 33  1  0  0  0  0
  4 15  3  0  0  0  0
  5  6  1  0  0  0  0
  5  7  1  0  0  0  0
  5 25  1  0  0  0  0
  5 26  1  0  0  0  0
  6  8  1  0  0  0  0
  6 27  1  0  0  0  0
  6 28  1  0  0  0  0
  7  9  1  0  0  0  0
  7 29  1  0  0  0  0
  7 30  1  0  0  0  0
  8 10  1  0  0  0  0
  8 31  1  0  0  0  0
  8 32  1  0  0  0  0
  9 10  2  0  0  0  0
  9 11  1  0  0  0  0
 11 12  2  0  0  0  0
 11 15  1  0  0  0  0
 13 14  1  0  0  0  0
 14 16  1  0  0  0  0
 14 18  2  0  0  0  0
 16 17  1  0  0  0  0
 16 19  2  0  0  0  0
 17 20  1  0  0  0  0
 17 22  2  0  0  0  0
 18 21  1  0  0  0  0
 18 34  1  0  0  0  0
 19 23  1  0  0  0  0
 19 35  1  0  0  0  0
 20 21  2  0  0  0  0
 20 36  1  0  0  0  0
 21 37  1  0  0  0  0
 22 24  1  0  0  0  0
 22 38  1  0  0  0  0
 23 24  2  0  0  0  0
 23 39  1  0  0  0  0
 24 40  1  0  0  0  0
M  END
> <PUBCHEM_COMPOUND_CID>
766949

> <PUBCHEM_COMPOUND_CANONICALIZED>
1

> <PUBCHEM_CACTVS_COMPLEXITY>
527

> <PUBCHEM_CACTVS_HBOND_ACCEPTOR>
3

> <PUBCHEM_CACTVS_HBOND_DONOR>
1

> <PUBCHEM_CACTVS_ROTATABLE_BOND>
2

> <PUBCHEM_CACTVS_SUBSKEYS>
AAADceB7IABAAAAAAAAAAAAAAAAAASAAAAAwYMAAAAAAAEjB1AAAHgQQAAAADACB2AAwgcLAAAicBiFSUACjAIBlCBkIiBEARMgIoDLglZGEIQhghADoyY8YiMCOgAACAAAQAAAAAAQAACgAAAAAAAAAAA==

> <PUBCHEM_IUPAC_OPENEYE_NAME>
N-(3-cyano-4,5,6,7-tetrahydrobenzothiophen-2-yl)naphthalene-1-carboxamide

> <PUBCHEM_IUPAC_CAS_NAME>
N-(3-cyano-4,5,6,7-tetrahydro-1-benzothiophen-2-yl)-1-naphthalenecarboxamide

> <PUBCHEM_IUPAC_NAME_MARKUP>
<I>N</I>-(3-cyano-4,5,6,7-tetrahydro-1-benzothiophen-2-yl)naphthalene-1-carboxamide

> <PUBCHEM_IUPAC_NAME>
N-(3-cyano-4,5,6,7-tetrahydro-1-benzothiophen-2-yl)naphthalene-1-carboxamide

> <PUBCHEM_IUPAC_SYSTEMATIC_NAME>
N-(3-cyano-4,5,6,7-tetrahydro-1-benzothiophen-2-yl)naphthalene-1-carboxamide

> <PUBCHEM_IUPAC_TRADITIONAL_NAME>
N-(3-cyano-4,5,6,7-tetrahydrobenzothiophen-2-yl)-1-naphthamide

> <PUBCHEM_IUPAC_INCHI>
InChI=1S/C20H16N2OS/c21-12-17-15-9-3-4-11-18(15)24-20(17)22-19(23)16-10-5-7-13-6-1-2-8-14(13)16/h1-2,5-8,10H,3-4,9,11H2,(H,22,23)

> <PUBCHEM_IUPAC_INCHIKEY>
WQGDQGAFSDMBLA-UHFFFAOYSA-N

> <PUBCHEM_XLOGP3_AA>
5.5

> <PUBCHEM_EXACT_MASS>
332.09833431

> <PUBCHEM_MOLECULAR_FORMULA>
C20H16N2OS

> <PUBCHEM_MOLECULAR_WEIGHT>
332.4

> <PUBCHEM_SMILES>
C1CCC2=C(C1)C(=C(S2)NC(=O)C3=CC=CC4=CC=CC=C43)C#N

> <PUBCHEM_OPENEYE_CAN_SMILES>
C1CCC2=C(C1)C(=C(S2)NC(=O)C3=CC=CC4=CC=CC=C43)C#N

> <PUBCHEM_OPENEYE_ISO_SMILES>
C1CCC2=C(C1)C(=C(S2)NC(=O)C3=CC=CC4=CC=CC=C43)C#N

> <PUBCHEM_CACTVS_TPSA>
81.1

> <PUBCHEM_MONOISOTOPIC_WEIGHT>
332.09833431

> <PUBCHEM_TOTAL_CHARGE>
0

> <PUBCHEM_HEAVY_ATOM_COUNT>
24

> <PUBCHEM_ATOM_DEF_STEREO_COUNT>
0

> <PUBCHEM_ATOM_UDEF_STEREO_COUNT>
0

> <PUBCHEM_BOND_DEF_STEREO_COUNT>
0

> <PUBCHEM_BOND_UDEF_STEREO_COUNT>
0

> <PUBCHEM_ISOTOPIC_ATOM_COUNT>
0

> <PUBCHEM_COMPONENT_COUNT>
1

> <PUBCHEM_CACTVS_TAUTO_COUNT>
-1

> <PUBCHEM_COORDINATE_TYPE>
1
5
255

> <PUBCHEM_BONDANNOTATIONS>
1  10  8
1  12  8
11  12  8
14  16  8
14  18  8
16  17  8
16  19  8
17  20  8
17  22  8
18  21  8
19  23  8
20  21  8
22  24  8
23  24  8
9  10  8
9  11  8

$$$$
