49830612
  -OEChem-03202503492D

 60 63  0     0  0  0  0  0  0999 V2000
    7.1279   -2.7618    0.0000 F   0  0  0  0  0  0  0  0  0  0  0  0
   10.1279   -1.0298    0.0000 F   0  0  0  0  0  0  0  0  0  0  0  0
   10.7010    4.4019    0.0000 O   0  0  0  0  0  0  0  0  0  0  0  0
    3.7320   -3.0298    0.0000 O   0  0  0  0  0  0  0  0  0  0  0  0
    8.1226    2.0884    0.0000 N   0  0  0  0  0  0  0  0  0  0  0  0
    4.5981   -0.5298    0.0000 N   0  0  0  0  0  0  0  0  0  0  0  0
    6.8335    0.9317    0.0000 N   0  0  0  0  0  0  0  0  0  0  0  0
    5.5443   -1.8345    0.0000 N   0  0  0  0  0  0  0  0  0  0  0  0
    6.4763    2.6265    0.0000 N   0  0  0  0  0  0  0  0  0  0  0  0
    2.8660   -1.5298    0.0000 N   0  0  0  0  0  0  0  0  0  0  0  0
    9.4118    3.2452    0.0000 C   0  0  0  0  0  0  0  0  0  0  0  0
    8.4333    3.0390    0.0000 C   0  0  0  0  0  0  0  0  0  0  0  0
   10.3903    3.4514    0.0000 C   0  0  0  0  0  0  0  0  0  0  0  0
    9.2056    4.2237    0.0000 C   0  0  0  0  0  0  0  0  0  0  0  0
    9.6180    2.2667    0.0000 C   0  0  0  0  0  0  0  0  0  0  0  0
    5.5443   -0.2250    0.0000 C   0  0  0  0  0  0  0  0  0  0  0  0
    7.1441    1.8822    0.0000 C   0  0  0  0  0  0  0  0  0  0  0  0
    6.1279   -1.0298    0.0000 C   0  0  0  0  0  0  0  0  0  0  0  0
    5.8550    0.7255    0.0000 C   0  0  0  0  0  0  0  0  0  0  0  0
    4.5981   -1.5298    0.0000 C   0  0  0  0  0  0  0  0  0  0  0  0
    7.1279   -1.0298    0.0000 C   0  0  0  0  0  0  0  0  0  0  0  0
    3.7320   -2.0298    0.0000 C   0  0  0  0  0  0  0  0  0  0  0  0
    3.7320   -0.0298    0.0000 C   0  0  0  0  0  0  0  0  0  0  0  0
    5.1871    1.4698    0.0000 C   0  0  0  0  0  0  0  0  0  0  0  0
    5.4978    2.4203    0.0000 C   0  0  0  0  0  0  0  0  0  0  0  0
    2.8660   -3.5298    0.0000 C   0  0  0  0  0  0  0  0  0  0  0  0
    2.8660   -0.5298    0.0000 C   0  0  0  0  0  0  0  0  0  0  0  0
    7.6279   -1.8958    0.0000 C   0  0  0  0  0  0  0  0  0  0  0  0
    7.6279   -0.1637    0.0000 C   0  0  0  0  0  0  0  0  0  0  0  0
    2.8660   -4.5298    0.0000 C   0  0  0  0  0  0  0  0  0  0  0  0
    2.0000   -3.0298    0.0000 C   0  0  0  0  0  0  0  0  0  0  0  0
    8.6279   -1.8958    0.0000 C   0  0  0  0  0  0  0  0  0  0  0  0
    8.6279   -0.1637    0.0000 C   0  0  0  0  0  0  0  0  0  0  0  0
    9.1279   -1.0298    0.0000 C   0  0  0  0  0  0  0  0  0  0  0  0
    8.4127    3.6586    0.0000 H   0  0  0  0  0  0  0  0  0  0  0  0
    7.8195    3.1263    0.0000 H   0  0  0  0  0  0  0  0  0  0  0  0
   10.4109    2.8317    0.0000 H   0  0  0  0  0  0  0  0  0  0  0  0
   11.0041    3.3640    0.0000 H   0  0  0  0  0  0  0  0  0  0  0  0
    9.8122    4.3515    0.0000 H   0  0  0  0  0  0  0  0  0  0  0  0
    9.0777    4.8304    0.0000 H   0  0  0  0  0  0  0  0  0  0  0  0
    8.5989    4.0958    0.0000 H   0  0  0  0  0  0  0  0  0  0  0  0
    9.0114    2.1388    0.0000 H   0  0  0  0  0  0  0  0  0  0  0  0
    9.7459    1.6600    0.0000 H   0  0  0  0  0  0  0  0  0  0  0  0
   10.2247    2.3945    0.0000 H   0  0  0  0  0  0  0  0  0  0  0  0
    8.5367    1.6270    0.0000 H   0  0  0  0  0  0  0  0  0  0  0  0
   11.3076    4.5298    0.0000 H   0  0  0  0  0  0  0  0  0  0  0  0
    3.7320    0.5902    0.0000 H   0  0  0  0  0  0  0  0  0  0  0  0
    4.5804    1.3419    0.0000 H   0  0  0  0  0  0  0  0  0  0  0  0
    5.0837    2.8818    0.0000 H   0  0  0  0  0  0  0  0  0  0  0  0
    2.8660   -2.9098    0.0000 H   0  0  0  0  0  0  0  0  0  0  0  0
    2.3291   -0.2198    0.0000 H   0  0  0  0  0  0  0  0  0  0  0  0
    7.3179    0.3732    0.0000 H   0  0  0  0  0  0  0  0  0  0  0  0
    2.2460   -4.5298    0.0000 H   0  0  0  0  0  0  0  0  0  0  0  0
    2.8660   -5.1498    0.0000 H   0  0  0  0  0  0  0  0  0  0  0  0
    3.4860   -4.5298    0.0000 H   0  0  0  0  0  0  0  0  0  0  0  0
    2.3100   -2.4928    0.0000 H   0  0  0  0  0  0  0  0  0  0  0  0
    1.4631   -2.7198    0.0000 H   0  0  0  0  0  0  0  0  0  0  0  0
    1.6900   -3.5667    0.0000 H   0  0  0  0  0  0  0  0  0  0  0  0
    8.9379   -2.4327    0.0000 H   0  0  0  0  0  0  0  0  0  0  0  0
    8.9379    0.3732    0.0000 H   0  0  0  0  0  0  0  0  0  0  0  0
  1 28  1  0  0  0  0
  2 34  1  0  0  0  0
  3 13  1  0  0  0  0
  3 46  1  0  0  0  0
  4 22  1  0  0  0  0
  4 26  1  0  0  0  0
  5 12  1  0  0  0  0
  5 17  1  0  0  0  0
  5 45  1  0  0  0  0
  6 16  1  0  0  0  0
  6 20  1  0  0  0  0
  6 23  1  0  0  0  0
  7 17  1  0  0  0  0
  7 19  2  0  0  0  0
  8 18  1  0  0  0  0
  8 20  2  0  0  0  0
  9 17  2  0  0  0  0
  9 25  1  0  0  0  0
 10 22  2  0  0  0  0
 10 27  1  0  0  0  0
 11 12  1  0  0  0  0
 11 13  1  0  0  0  0
 11 14  1  0  0  0  0
 11 15  1  0  0  0  0
 12 35  1  0  0  0  0
 12 36  1  0  0  0  0
 13 37  1  0  0  0  0
 13 38  1  0  0  0  0
 14 39  1  0  0  0  0
 14 40  1  0  0  0  0
 14 41  1  0  0  0  0
 15 42  1  0  0  0  0
 15 43  1  0  0  0  0
 15 44  1  0  0  0  0
 16 18  2  0  0  0  0
 16 19  1  0  0  0  0
 18 21  1  0  0  0  0
 19 24  1  0  0  0  0
 20 22  1  0  0  0  0
 21 28  2  0  0  0  0
 21 29  1  0  0  0  0
 23 27  2  0  0  0  0
 23 47  1  0  0  0  0
 24 25  2  0  0  0  0
 24 48  1  0  0  0  0
 25 49  1  0  0  0  0
 26 30  1  0  0  0  0
 26 31  1  0  0  0  0
 26 50  1  0  0  0  0
 27 51  1  0  0  0  0
 28 32  1  0  0  0  0
 29 33  2  0  0  0  0
 29 52  1  0  0  0  0
 30 53  1  0  0  0  0
 30 54  1  0  0  0  0
 30 55  1  0  0  0  0
 31 56  1  0  0  0  0
 31 57  1  0  0  0  0
 31 58  1  0  0  0  0
 32 34  2  0  0  0  0
 32 59  1  0  0  0  0
 33 34  1  0  0  0  0
 33 60  1  0  0  0  0
M  END
> <PUBCHEM_COMPOUND_CID>
49830612

> <PUBCHEM_COMPOUND_CANONICALIZED>
1

> <PUBCHEM_CACTVS_COMPLEXITY>
659

> <PUBCHEM_CACTVS_HBOND_ACCEPTOR>
9

> <PUBCHEM_CACTVS_HBOND_DONOR>
2

> <PUBCHEM_CACTVS_ROTATABLE_BOND>
8

> <PUBCHEM_CACTVS_SUBSKEYS>
AAADceB7sYAAAAAAAAAAAAAAAAAAAWAAAAA8WIAAAAAAAFgB/AAAHwAQCAAADhzhnw4/tJ/MHgCgAzZnZASCiC0xUqAJ2KA5dJiOeOLA2dGfbAjqgALYyCcQgMAOAAAAAAAAAAAAAAAAAAAAAAAAAAAAAA==

> <PUBCHEM_IUPAC_OPENEYE_NAME>
3-[[4-[2-(2,4-difluorophenyl)-8-isopropoxy-imidazo[1,2-a]pyrazin-3-yl]pyrimidin-2-yl]amino]-2,2-dimethyl-propan-1-ol

> <PUBCHEM_IUPAC_CAS_NAME>
3-[[4-[2-(2,4-difluorophenyl)-8-propan-2-yloxy-3-imidazo[1,2-a]pyrazinyl]-2-pyrimidinyl]amino]-2,2-dimethyl-1-propanol

> <PUBCHEM_IUPAC_NAME_MARKUP>
3-[[4-[2-(2,4-difluorophenyl)-8-propan-2-yloxyimidazo[1,2-a]pyrazin-3-yl]pyrimidin-2-yl]amino]-2,2-dimethylpropan-1-ol

> <PUBCHEM_IUPAC_NAME>
3-[[4-[2-(2,4-difluorophenyl)-8-propan-2-yloxyimidazo[1,2-a]pyrazin-3-yl]pyrimidin-2-yl]amino]-2,2-dimethylpropan-1-ol

> <PUBCHEM_IUPAC_SYSTEMATIC_NAME>
3-[[4-[2-[2,4-bis(fluoranyl)phenyl]-8-propan-2-yloxy-imidazo[1,2-a]pyrazin-3-yl]pyrimidin-2-yl]amino]-2,2-dimethyl-propan-1-ol

> <PUBCHEM_IUPAC_TRADITIONAL_NAME>
3-[[4-[2-(2,4-difluorophenyl)-8-isopropoxy-imidazo[1,2-a]pyrazin-3-yl]pyrimidin-2-yl]amino]-2,2-dimethyl-propan-1-ol

> <PUBCHEM_IUPAC_INCHI>
InChI=1S/C24H26F2N6O2/c1-14(2)34-22-21-31-19(16-6-5-15(25)11-17(16)26)20(32(21)10-9-27-22)18-7-8-28-23(30-18)29-12-24(3,4)13-33/h5-11,14,33H,12-13H2,1-4H3,(H,28,29,30)

> <PUBCHEM_IUPAC_INCHIKEY>
KBFBKKNSHPUFET-UHFFFAOYSA-N

> <PUBCHEM_XLOGP3_AA>
5

> <PUBCHEM_EXACT_MASS>
468.20853042

> <PUBCHEM_MOLECULAR_FORMULA>
C24H26F2N6O2

> <PUBCHEM_MOLECULAR_WEIGHT>
468.5

> <PUBCHEM_SMILES>
CC(C)OC1=NC=CN2C1=NC(=C2C3=NC(=NC=C3)NCC(C)(C)CO)C4=C(C=C(C=C4)F)F

> <PUBCHEM_OPENEYE_CAN_SMILES>
CC(C)OC1=NC=CN2C1=NC(=C2C3=NC(=NC=C3)NCC(C)(C)CO)C4=C(C=C(C=C4)F)F

> <PUBCHEM_OPENEYE_ISO_SMILES>
CC(C)OC1=NC=CN2C1=NC(=C2C3=NC(=NC=C3)NCC(C)(C)CO)C4=C(C=C(C=C4)F)F

> <PUBCHEM_CACTVS_TPSA>
97.5

> <PUBCHEM_MONOISOTOPIC_WEIGHT>
468.20853042

> <PUBCHEM_TOTAL_CHARGE>
0

> <PUBCHEM_HEAVY_ATOM_COUNT>
34

> <PUBCHEM_ATOM_DEF_STEREO_COUNT>
0

> <PUBCHEM_ATOM_UDEF_STEREO_COUNT>
0

> <PUBCHEM_BOND_DEF_STEREO_COUNT>
0

> <PUBCHEM_BOND_UDEF_STEREO_COUNT>
0

> <PUBCHEM_ISOTOPIC_ATOM_COUNT>
0

> <PUBCHEM_COMPONENT_COUNT>
1

> <PUBCHEM_CACTVS_TAUTO_COUNT>
-1

> <PUBCHEM_COORDINATE_TYPE>
1
5
255

> <PUBCHEM_BONDANNOTATIONS>
10  22  8
10  27  8
16  18  8
19  24  8
20  22  8
21  28  8
21  29  8
23  27  8
24  25  8
28  32  8
29  33  8
32  34  8
33  34  8
6  16  8
6  20  8
6  23  8
7  17  8
7  19  8
8  18  8
8  20  8
9  17  8
9  25  8

$$$$
