56832546
  -OEChem-03202504332D

 35 37  0     0  0  0  0  0  0999 V2000
    5.4641   -0.5000    0.0000 S   0  0  0  0  0  0  0  0  0  0  0  0
    2.8660    1.0000    0.0000 O   0  0  0  0  0  0  0  0  0  0  0  0
    5.4641    3.5000    0.0000 N   0  0  0  0  0  0  0  0  0  0  0  0
    3.7320   -2.5000    0.0000 N   0  0  0  0  0  0  0  0  0  0  0  0
    4.5981    1.0000    0.0000 C   0  0  0  0  0  0  0  0  0  0  0  0
    3.7320   -0.5000    0.0000 C   0  0  0  0  0  0  0  0  0  0  0  0
    5.4641    0.5000    0.0000 C   0  0  0  0  0  0  0  0  0  0  0  0
    4.5981   -1.0000    0.0000 C   0  0  0  0  0  0  0  0  0  0  0  0
    3.7320    0.5000    0.0000 C   0  0  0  0  0  0  0  0  0  0  0  0
    4.5981    2.0000    0.0000 C   0  0  0  0  0  0  0  0  0  0  0  0
    2.8660   -1.0000    0.0000 C   0  0  0  0  0  0  0  0  0  0  0  0
    5.4641    2.5000    0.0000 C   0  0  0  0  0  0  0  0  0  0  0  0
    2.8660   -2.0000    0.0000 C   0  0  0  0  0  0  0  0  0  0  0  0
    6.3301    2.0000    0.0000 C   0  0  0  0  0  0  0  0  0  0  0  0
    2.0000   -2.5000    0.0000 C   0  0  0  0  0  0  0  0  0  0  0  0
    7.1962    2.5000    0.0000 C   0  0  0  0  0  0  0  0  0  0  0  0
    2.0000   -3.5000    0.0000 C   0  0  0  0  0  0  0  0  0  0  0  0
    6.3301    4.0000    0.0000 C   0  0  0  0  0  0  0  0  0  0  0  0
    3.7320   -3.5000    0.0000 C   0  0  0  0  0  0  0  0  0  0  0  0
    7.1962    3.5000    0.0000 C   0  0  0  0  0  0  0  0  0  0  0  0
    2.8660   -4.0000    0.0000 C   0  0  0  0  0  0  0  0  0  0  0  0
    6.0747    0.3923    0.0000 H   0  0  0  0  0  0  0  0  0  0  0  0
    5.6762    1.0826    0.0000 H   0  0  0  0  0  0  0  0  0  0  0  0
    4.1996   -1.4750    0.0000 H   0  0  0  0  0  0  0  0  0  0  0  0
    4.9966   -1.4750    0.0000 H   0  0  0  0  0  0  0  0  0  0  0  0
    4.0611    2.3100    0.0000 H   0  0  0  0  0  0  0  0  0  0  0  0
    2.3291   -0.6900    0.0000 H   0  0  0  0  0  0  0  0  0  0  0  0
    6.3301    1.3800    0.0000 H   0  0  0  0  0  0  0  0  0  0  0  0
    1.4631   -2.1900    0.0000 H   0  0  0  0  0  0  0  0  0  0  0  0
    7.7331    2.1900    0.0000 H   0  0  0  0  0  0  0  0  0  0  0  0
    1.4631   -3.8100    0.0000 H   0  0  0  0  0  0  0  0  0  0  0  0
    6.3301    4.6200    0.0000 H   0  0  0  0  0  0  0  0  0  0  0  0
    4.2690   -3.8100    0.0000 H   0  0  0  0  0  0  0  0  0  0  0  0
    7.7331    3.8100    0.0000 H   0  0  0  0  0  0  0  0  0  0  0  0
    2.8660   -4.6200    0.0000 H   0  0  0  0  0  0  0  0  0  0  0  0
  1  7  1  0  0  0  0
  1  8  1  0  0  0  0
  2  9  2  0  0  0  0
  3 12  1  0  0  0  0
  3 18  2  0  0  0  0
  4 13  1  0  0  0  0
  4 19  2  0  0  0  0
  5  7  1  0  0  0  0
  5  9  1  0  0  0  0
  5 10  2  0  0  0  0
  6  8  1  0  0  0  0
  6  9  1  0  0  0  0
  6 11  2  0  0  0  0
  7 22  1  0  0  0  0
  7 23  1  0  0  0  0
  8 24  1  0  0  0  0
  8 25  1  0  0  0  0
 10 12  1  0  0  0  0
 10 26  1  0  0  0  0
 11 13  1  0  0  0  0
 11 27  1  0  0  0  0
 12 14  2  0  0  0  0
 13 15  2  0  0  0  0
 14 16  1  0  0  0  0
 14 28  1  0  0  0  0
 15 17  1  0  0  0  0
 15 29  1  0  0  0  0
 16 20  2  0  0  0  0
 16 30  1  0  0  0  0
 17 21  2  0  0  0  0
 17 31  1  0  0  0  0
 18 20  1  0  0  0  0
 18 32  1  0  0  0  0
 19 21  1  0  0  0  0
 19 33  1  0  0  0  0
 20 34  1  0  0  0  0
 21 35  1  0  0  0  0
M  END
> <PUBCHEM_COMPOUND_CID>
56832546

> <PUBCHEM_COMPOUND_CANONICALIZED>
1

> <PUBCHEM_CACTVS_COMPLEXITY>
406

> <PUBCHEM_CACTVS_HBOND_ACCEPTOR>
4

> <PUBCHEM_CACTVS_HBOND_DONOR>
0

> <PUBCHEM_CACTVS_ROTATABLE_BOND>
2

> <PUBCHEM_CACTVS_SUBSKEYS>
AAADccB7IABAAAAAAAAAAAAAAAAAAAAAAAAsWJAAAAAAAAAB4AAAHgQAAAAADAzF1gS8gJIIEAioA7R3RACCgCAxAjAI2CE4ZNgIIOLgkZGEIAhggADoyYcQAAAAAAAAAAAAAAAAAAAAAAAAAAAAAAAAAA==

> <PUBCHEM_IUPAC_OPENEYE_NAME>
(3Z,5Z)-3,5-bis(2-pyridylmethylene)tetrahydrothiopyran-4-one

> <PUBCHEM_IUPAC_CAS_NAME>
(3Z,5Z)-3,5-bis(2-pyridinylmethylidene)-4-thianone

> <PUBCHEM_IUPAC_NAME_MARKUP>
(3<I>Z</I>,5<I>Z</I>)-3,5-bis(pyridin-2-ylmethylidene)thian-4-one

> <PUBCHEM_IUPAC_NAME>
(3Z,5Z)-3,5-bis(pyridin-2-ylmethylidene)thian-4-one

> <PUBCHEM_IUPAC_SYSTEMATIC_NAME>
(3Z,5Z)-3,5-bis(pyridin-2-ylmethylidene)thian-4-one

> <PUBCHEM_IUPAC_TRADITIONAL_NAME>
(3Z,5Z)-3,5-bis(2-pyridylmethylene)tetrahydrothiopyran-4-one

> <PUBCHEM_IUPAC_INCHI>
InChI=1S/C17H14N2OS/c20-17-13(9-15-5-1-3-7-18-15)11-21-12-14(17)10-16-6-2-4-8-19-16/h1-10H,11-12H2/b13-9+,14-10+

> <PUBCHEM_IUPAC_INCHIKEY>
SZUIRPWFHMMLIA-UTLPMFLDSA-N

> <PUBCHEM_XLOGP3_AA>
2.2

> <PUBCHEM_EXACT_MASS>
294.08268425

> <PUBCHEM_MOLECULAR_FORMULA>
C17H14N2OS

> <PUBCHEM_MOLECULAR_WEIGHT>
294.4

> <PUBCHEM_SMILES>
C\1SC/C(=C\C2=CC=CC=N2)/C(=O)/C1=C/C3=CC=CC=N3

> <PUBCHEM_OPENEYE_CAN_SMILES>
C1C(=CC2=CC=CC=N2)C(=O)C(=CC3=CC=CC=N3)CS1

> <PUBCHEM_OPENEYE_ISO_SMILES>
C\1SC/C(=C\C2=CC=CC=N2)/C(=O)/C1=C/C3=CC=CC=N3

> <PUBCHEM_CACTVS_TPSA>
68.2

> <PUBCHEM_MONOISOTOPIC_WEIGHT>
294.08268425

> <PUBCHEM_TOTAL_CHARGE>
0

> <PUBCHEM_HEAVY_ATOM_COUNT>
21

> <PUBCHEM_ATOM_DEF_STEREO_COUNT>
0

> <PUBCHEM_ATOM_UDEF_STEREO_COUNT>
0

> <PUBCHEM_BOND_DEF_STEREO_COUNT>
2

> <PUBCHEM_BOND_UDEF_STEREO_COUNT>
0

> <PUBCHEM_ISOTOPIC_ATOM_COUNT>
0

> <PUBCHEM_COMPONENT_COUNT>
1

> <PUBCHEM_CACTVS_TAUTO_COUNT>
-1

> <PUBCHEM_COORDINATE_TYPE>
1
5
255

> <PUBCHEM_BONDANNOTATIONS>
12  14  8
13  15  8
14  16  8
15  17  8
16  20  8
17  21  8
18  20  8
19  21  8
3  12  8
3  18  8
4  13  8
4  19  8

$$$$
