18516214
  -OEChem-03202501512D

 28 30  0     0  0  0  0  0  0999 V2000
    4.6783   -2.6032    0.0000 S   0  0  0  0  0  0  0  0  0  0  0  0
    4.5981    0.2015    0.0000 F   0  0  0  0  0  0  0  0  0  0  0  0
    2.8660    3.2015    0.0000 F   0  0  0  0  0  0  0  0  0  0  0  0
    6.7619   -0.9325    0.0000 O   0  0  0  0  0  0  0  0  0  0  0  0
    2.0000   -2.2985    0.0000 N   0  0  0  0  0  0  0  0  0  0  0  0
    6.7619   -2.6645    0.0000 N   0  0  0  0  0  0  0  0  0  0  0  0
    3.7320   -1.2985    0.0000 C   0  0  0  0  0  0  0  0  0  0  0  0
    2.8660   -0.7985    0.0000 C   0  0  0  0  0  0  0  0  0  0  0  0
    3.7320   -2.2985    0.0000 C   0  0  0  0  0  0  0  0  0  0  0  0
    2.8660    0.2015    0.0000 C   0  0  0  0  0  0  0  0  0  0  0  0
    4.6783   -0.9938    0.0000 C   0  0  0  0  0  0  0  0  0  0  0  0
    5.2619   -1.7985    0.0000 C   0  0  0  0  0  0  0  0  0  0  0  0
    2.0000   -1.2985    0.0000 C   0  0  0  0  0  0  0  0  0  0  0  0
    2.8660   -2.7985    0.0000 C   0  0  0  0  0  0  0  0  0  0  0  0
    3.7320    0.7015    0.0000 C   0  0  0  0  0  0  0  0  0  0  0  0
    2.0000    0.7015    0.0000 C   0  0  0  0  0  0  0  0  0  0  0  0
    3.7320    1.7015    0.0000 C   0  0  0  0  0  0  0  0  0  0  0  0
    2.0000    1.7015    0.0000 C   0  0  0  0  0  0  0  0  0  0  0  0
    6.2619   -1.7985    0.0000 C   0  0  0  0  0  0  0  0  0  0  0  0
    2.8660    2.2015    0.0000 C   0  0  0  0  0  0  0  0  0  0  0  0
    4.8709   -0.4045    0.0000 H   0  0  0  0  0  0  0  0  0  0  0  0
    1.4631   -0.9885    0.0000 H   0  0  0  0  0  0  0  0  0  0  0  0
    2.8660   -3.4185    0.0000 H   0  0  0  0  0  0  0  0  0  0  0  0
    1.4631    0.3915    0.0000 H   0  0  0  0  0  0  0  0  0  0  0  0
    4.2690    2.0115    0.0000 H   0  0  0  0  0  0  0  0  0  0  0  0
    1.4631    2.0115    0.0000 H   0  0  0  0  0  0  0  0  0  0  0  0
    7.3819   -2.6645    0.0000 H   0  0  0  0  0  0  0  0  0  0  0  0
    6.4519   -3.2015    0.0000 H   0  0  0  0  0  0  0  0  0  0  0  0
  1  9  1  0  0  0  0
  1 12  1  0  0  0  0
  2 15  1  0  0  0  0
  3 20  1  0  0  0  0
  4 19  2  0  0  0  0
  5 13  1  0  0  0  0
  5 14  2  0  0  0  0
  6 19  1  0  0  0  0
  6 27  1  0  0  0  0
  6 28  1  0  0  0  0
  7  8  1  0  0  0  0
  7  9  2  0  0  0  0
  7 11  1  0  0  0  0
  8 10  1  0  0  0  0
  8 13  2  0  0  0  0
  9 14  1  0  0  0  0
 10 15  2  0  0  0  0
 10 16  1  0  0  0  0
 11 12  2  0  0  0  0
 11 21  1  0  0  0  0
 12 19  1  0  0  0  0
 13 22  1  0  0  0  0
 14 23  1  0  0  0  0
 15 17  1  0  0  0  0
 16 18  2  0  0  0  0
 16 24  1  0  0  0  0
 17 20  2  0  0  0  0
 17 25  1  0  0  0  0
 18 20  1  0  0  0  0
 18 26  1  0  0  0  0
M  END
> <PUBCHEM_COMPOUND_CID>
18516214

> <PUBCHEM_COMPOUND_CANONICALIZED>
1

> <PUBCHEM_CACTVS_COMPLEXITY>
384

> <PUBCHEM_CACTVS_HBOND_ACCEPTOR>
5

> <PUBCHEM_CACTVS_HBOND_DONOR>
1

> <PUBCHEM_CACTVS_ROTATABLE_BOND>
2

> <PUBCHEM_CACTVS_SUBSKEYS>
AAADccBzIYBAAAAAAAAAAAAAAAAAASAAAAA8QAAAAAAAAFgB/AAAHwQQAAAADADB2gw8gdJIEAisAjF3VACDoKA1CDBI2D0oRNgIIHLglZGEIQhggADoyYcYiMCOgAAAAAAAAAAAAAAAAAAAAAAAAAAAAA==

> <PUBCHEM_IUPAC_OPENEYE_NAME>
4-(2,4-difluorophenyl)thieno[2,3-c]pyridine-2-carboxamide

> <PUBCHEM_IUPAC_CAS_NAME>
4-(2,4-difluorophenyl)-2-thieno[2,3-c]pyridinecarboxamide

> <PUBCHEM_IUPAC_NAME_MARKUP>
4-(2,4-difluorophenyl)thieno[2,3-c]pyridine-2-carboxamide

> <PUBCHEM_IUPAC_NAME>
4-(2,4-difluorophenyl)thieno[2,3-c]pyridine-2-carboxamide

> <PUBCHEM_IUPAC_SYSTEMATIC_NAME>
4-[2,4-bis(fluoranyl)phenyl]thieno[2,3-c]pyridine-2-carboxamide

> <PUBCHEM_IUPAC_TRADITIONAL_NAME>
4-(2,4-difluorophenyl)thieno[2,3-c]pyridine-2-carboxamide

> <PUBCHEM_IUPAC_INCHI>
InChI=1S/C14H8F2N2OS/c15-7-1-2-8(11(16)3-7)10-5-18-6-13-9(10)4-12(20-13)14(17)19/h1-6H,(H2,17,19)

> <PUBCHEM_IUPAC_INCHIKEY>
WZBMMJKAHHOXRG-UHFFFAOYSA-N

> <PUBCHEM_XLOGP3_AA>
2.9

> <PUBCHEM_EXACT_MASS>
290.03254038

> <PUBCHEM_MOLECULAR_FORMULA>
C14H8F2N2OS

> <PUBCHEM_MOLECULAR_WEIGHT>
290.29

> <PUBCHEM_SMILES>
C1=CC(=C(C=C1F)F)C2=CN=CC3=C2C=C(S3)C(=O)N

> <PUBCHEM_OPENEYE_CAN_SMILES>
C1=CC(=C(C=C1F)F)C2=CN=CC3=C2C=C(S3)C(=O)N

> <PUBCHEM_OPENEYE_ISO_SMILES>
C1=CC(=C(C=C1F)F)C2=CN=CC3=C2C=C(S3)C(=O)N

> <PUBCHEM_CACTVS_TPSA>
84.2

> <PUBCHEM_MONOISOTOPIC_WEIGHT>
290.03254038

> <PUBCHEM_TOTAL_CHARGE>
0

> <PUBCHEM_HEAVY_ATOM_COUNT>
20

> <PUBCHEM_ATOM_DEF_STEREO_COUNT>
0

> <PUBCHEM_ATOM_UDEF_STEREO_COUNT>
0

> <PUBCHEM_BOND_DEF_STEREO_COUNT>
0

> <PUBCHEM_BOND_UDEF_STEREO_COUNT>
0

> <PUBCHEM_ISOTOPIC_ATOM_COUNT>
0

> <PUBCHEM_COMPONENT_COUNT>
1

> <PUBCHEM_CACTVS_TAUTO_COUNT>
-1

> <PUBCHEM_COORDINATE_TYPE>
1
5
255

> <PUBCHEM_BONDANNOTATIONS>
1  12  8
1  9  8
10  15  8
10  16  8
11  12  8
15  17  8
16  18  8
17  20  8
18  20  8
5  13  8
5  14  8
7  11  8
7  8  8
7  9  8
8  13  8
9  14  8

$$$$
