70789756
  -OEChem-03202504542D

 68 71  0     0  0  0  0  0  0999 V2000
    2.4612    2.5337    0.0000 O   0  0  0  0  0  0  0  0  0  0  0  0
    7.9128    2.6488    0.0000 O   0  0  0  0  0  0  0  0  0  0  0  0
   11.3769   -3.3512    0.0000 O   0  0  0  0  0  0  0  0  0  0  0  0
    9.6448    2.6488    0.0000 N   0  0  0  0  0  0  0  0  0  0  0  0
    3.5827    1.1488    0.0000 N   0  0  0  0  0  0  0  0  0  0  0  0
   10.5109    1.1488    0.0000 N   0  0  0  0  0  0  0  0  0  0  0  0
    7.0468    1.1488    0.0000 N   0  0  0  0  0  0  0  0  0  0  0  0
    9.6448   -0.3512    0.0000 N   0  0  0  0  0  0  0  0  0  0  0  0
   11.3769   -0.3512    0.0000 N   0  0  0  0  0  0  0  0  0  0  0  0
   10.5109    3.1488    0.0000 C   0  0  0  0  0  0  0  0  0  0  0  0
   11.4244    2.7420    0.0000 C   0  0  0  0  0  0  0  0  0  0  0  0
   10.6154    4.1433    0.0000 C   0  0  0  0  0  0  0  0  0  0  0  0
   12.0936    3.4852    0.0000 C   0  0  0  0  0  0  0  0  0  0  0  0
   11.5936    4.3512    0.0000 C   0  0  0  0  0  0  0  0  0  0  0  0
    9.6448    1.6488    0.0000 C   0  0  0  0  0  0  0  0  0  0  0  0
    3.4782    0.1543    0.0000 C   0  0  0  0  0  0  0  0  0  0  0  0
    2.5000   -0.0537    0.0000 C   0  0  0  0  0  0  0  0  0  0  0  0
    4.4487    1.6488    0.0000 C   0  0  0  0  0  0  0  0  0  0  0  0
    2.0000    0.8124    0.0000 C   0  0  0  0  0  0  0  0  0  0  0  0
    2.6691    1.5555    0.0000 C   0  0  0  0  0  0  0  0  0  0  0  0
    5.3147    1.1488    0.0000 C   0  0  0  0  0  0  0  0  0  0  0  0
    8.7788    1.1488    0.0000 C   0  0  0  0  0  0  0  0  0  0  0  0
    6.1808    1.6488    0.0000 C   0  0  0  0  0  0  0  0  0  0  0  0
    7.9128    1.6488    0.0000 C   0  0  0  0  0  0  0  0  0  0  0  0
    8.7788    0.1488    0.0000 C   0  0  0  0  0  0  0  0  0  0  0  0
   10.5109    0.1488    0.0000 C   0  0  0  0  0  0  0  0  0  0  0  0
   11.3769   -1.3512    0.0000 C   0  0  0  0  0  0  0  0  0  0  0  0
   12.2429   -1.8512    0.0000 C   0  0  0  0  0  0  0  0  0  0  0  0
   12.2429   -2.8512    0.0000 C   0  0  0  0  0  0  0  0  0  0  0  0
   13.1090   -1.3512    0.0000 C   0  0  0  0  0  0  0  0  0  0  0  0
   13.1090   -3.3512    0.0000 C   0  0  0  0  0  0  0  0  0  0  0  0
   13.9750   -1.8512    0.0000 C   0  0  0  0  0  0  0  0  0  0  0  0
   13.9750   -2.8512    0.0000 C   0  0  0  0  0  0  0  0  0  0  0  0
   11.3769   -4.3512    0.0000 C   0  0  0  0  0  0  0  0  0  0  0  0
   10.5433    2.5296    0.0000 H   0  0  0  0  0  0  0  0  0  0  0  0
   11.1144    2.2051    0.0000 H   0  0  0  0  0  0  0  0  0  0  0  0
   11.9260    2.3776    0.0000 H   0  0  0  0  0  0  0  0  0  0  0  0
   10.5506    4.7599    0.0000 H   0  0  0  0  0  0  0  0  0  0  0  0
    9.9954    4.1433    0.0000 H   0  0  0  0  0  0  0  0  0  0  0  0
   12.5084    3.0244    0.0000 H   0  0  0  0  0  0  0  0  0  0  0  0
   12.5951    3.8496    0.0000 H   0  0  0  0  0  0  0  0  0  0  0  0
   12.1600    4.6034    0.0000 H   0  0  0  0  0  0  0  0  0  0  0  0
   11.4020    4.9409    0.0000 H   0  0  0  0  0  0  0  0  0  0  0  0
    9.1079    2.9588    0.0000 H   0  0  0  0  0  0  0  0  0  0  0  0
    3.5430   -0.4623    0.0000 H   0  0  0  0  0  0  0  0  0  0  0  0
    4.0982    0.1543    0.0000 H   0  0  0  0  0  0  0  0  0  0  0  0
    1.9336   -0.3058    0.0000 H   0  0  0  0  0  0  0  0  0  0  0  0
    2.6916   -0.6433    0.0000 H   0  0  0  0  0  0  0  0  0  0  0  0
    4.8472    2.1237    0.0000 H   0  0  0  0  0  0  0  0  0  0  0  0
    4.0502    2.1237    0.0000 H   0  0  0  0  0  0  0  0  0  0  0  0
    1.5851    1.2731    0.0000 H   0  0  0  0  0  0  0  0  0  0  0  0
    1.4984    0.4479    0.0000 H   0  0  0  0  0  0  0  0  0  0  0  0
    4.9162    0.6738    0.0000 H   0  0  0  0  0  0  0  0  0  0  0  0
    5.7133    0.6738    0.0000 H   0  0  0  0  0  0  0  0  0  0  0  0
    6.5793    2.1237    0.0000 H   0  0  0  0  0  0  0  0  0  0  0  0
    5.7822    2.1237    0.0000 H   0  0  0  0  0  0  0  0  0  0  0  0
    7.0468    0.5288    0.0000 H   0  0  0  0  0  0  0  0  0  0  0  0
    8.2419   -0.1612    0.0000 H   0  0  0  0  0  0  0  0  0  0  0  0
   11.9138   -0.0412    0.0000 H   0  0  0  0  0  0  0  0  0  0  0  0
   10.7663   -1.2436    0.0000 H   0  0  0  0  0  0  0  0  0  0  0  0
   11.1649   -1.9338    0.0000 H   0  0  0  0  0  0  0  0  0  0  0  0
   13.1090   -0.7312    0.0000 H   0  0  0  0  0  0  0  0  0  0  0  0
   13.1090   -3.9712    0.0000 H   0  0  0  0  0  0  0  0  0  0  0  0
   14.5119   -1.5412    0.0000 H   0  0  0  0  0  0  0  0  0  0  0  0
   14.5119   -3.1612    0.0000 H   0  0  0  0  0  0  0  0  0  0  0  0
   10.7569   -4.3512    0.0000 H   0  0  0  0  0  0  0  0  0  0  0  0
   11.3769   -4.9712    0.0000 H   0  0  0  0  0  0  0  0  0  0  0  0
   11.9969   -4.3512    0.0000 H   0  0  0  0  0  0  0  0  0  0  0  0
  1 20  2  0  0  0  0
  2 24  2  0  0  0  0
  3 29  1  0  0  0  0
  3 34  1  0  0  0  0
  4 10  1  0  0  0  0
  4 15  1  0  0  0  0
  4 44  1  0  0  0  0
  5 16  1  0  0  0  0
  5 18  1  0  0  0  0
  5 20  1  0  0  0  0
  6 15  2  0  0  0  0
  6 26  1  0  0  0  0
  7 23  1  0  0  0  0
  7 24  1  0  0  0  0
  7 57  1  0  0  0  0
  8 25  1  0  0  0  0
  8 26  2  0  0  0  0
  9 26  1  0  0  0  0
  9 27  1  0  0  0  0
  9 59  1  0  0  0  0
 10 11  1  0  0  0  0
 10 12  1  0  0  0  0
 10 35  1  0  0  0  0
 11 13  1  0  0  0  0
 11 36  1  0  0  0  0
 11 37  1  0  0  0  0
 12 14  1  0  0  0  0
 12 38  1  0  0  0  0
 12 39  1  0  0  0  0
 13 14  1  0  0  0  0
 13 40  1  0  0  0  0
 13 41  1  0  0  0  0
 14 42  1  0  0  0  0
 14 43  1  0  0  0  0
 15 22  1  0  0  0  0
 16 17  1  0  0  0  0
 16 45  1  0  0  0  0
 16 46  1  0  0  0  0
 17 19  1  0  0  0  0
 17 47  1  0  0  0  0
 17 48  1  0  0  0  0
 18 21  1  0  0  0  0
 18 49  1  0  0  0  0
 18 50  1  0  0  0  0
 19 20  1  0  0  0  0
 19 51  1  0  0  0  0
 19 52  1  0  0  0  0
 21 23  1  0  0  0  0
 21 53  1  0  0  0  0
 21 54  1  0  0  0  0
 22 24  1  0  0  0  0
 22 25  2  0  0  0  0
 23 55  1  0  0  0  0
 23 56  1  0  0  0  0
 25 58  1  0  0  0  0
 27 28  1  0  0  0  0
 27 60  1  0  0  0  0
 27 61  1  0  0  0  0
 28 29  1  0  0  0  0
 28 30  2  0  0  0  0
 29 31  2  0  0  0  0
 30 32  1  0  0  0  0
 30 62  1  0  0  0  0
 31 33  1  0  0  0  0
 31 63  1  0  0  0  0
 32 33  2  0  0  0  0
 32 64  1  0  0  0  0
 33 65  1  0  0  0  0
 34 66  1  0  0  0  0
 34 67  1  0  0  0  0
 34 68  1  0  0  0  0
M  END
> <PUBCHEM_COMPOUND_CID>
70789756

> <PUBCHEM_COMPOUND_CANONICALIZED>
1

> <PUBCHEM_CACTVS_COMPLEXITY>
659

> <PUBCHEM_CACTVS_HBOND_ACCEPTOR>
7

> <PUBCHEM_CACTVS_HBOND_DONOR>
3

> <PUBCHEM_CACTVS_ROTATABLE_BOND>
11

> <PUBCHEM_CACTVS_SUBSKEYS>
AAADcfB7sAAAAAAAAAAAAAAAAAAAAeIAAAA8QAAAAAAAAAABwAAAHgAQAAAADCzBmgY/tpfIFACoAjN3dACCiCk1IKAJ2KEuTNiMLrrE+VuENKhu1hPIqOeUwCAOAAAAAAAIAAAAAAAAABAAAAAAAAAAAA==

> <PUBCHEM_IUPAC_OPENEYE_NAME>
4-(cyclopentylamino)-2-[(2-methoxyphenyl)methylamino]-N-[3-(2-oxopyrrolidin-1-yl)propyl]pyrimidine-5-carboxamide

> <PUBCHEM_IUPAC_CAS_NAME>
4-(cyclopentylamino)-2-[(2-methoxyphenyl)methylamino]-N-[3-(2-oxo-1-pyrrolidinyl)propyl]-5-pyrimidinecarboxamide

> <PUBCHEM_IUPAC_NAME_MARKUP>
4-(cyclopentylamino)-2-[(2-methoxyphenyl)methylamino]-<I>N</I>-[3-(2-oxopyrrolidin-1-yl)propyl]pyrimidine-5-carboxamide

> <PUBCHEM_IUPAC_NAME>
4-(cyclopentylamino)-2-[(2-methoxyphenyl)methylamino]-N-[3-(2-oxopyrrolidin-1-yl)propyl]pyrimidine-5-carboxamide

> <PUBCHEM_IUPAC_SYSTEMATIC_NAME>
4-(cyclopentylamino)-2-[(2-methoxyphenyl)methylamino]-N-[3-(2-oxidanylidenepyrrolidin-1-yl)propyl]pyrimidine-5-carboxamide

> <PUBCHEM_IUPAC_TRADITIONAL_NAME>
4-(cyclopentylamino)-N-[3-(2-ketopyrrolidino)propyl]-2-(o-anisylamino)pyrimidine-5-carboxamide

> <PUBCHEM_IUPAC_INCHI>
InChI=1S/C25H34N6O3/c1-34-21-11-5-2-8-18(21)16-27-25-28-17-20(23(30-25)29-19-9-3-4-10-19)24(33)26-13-7-15-31-14-6-12-22(31)32/h2,5,8,11,17,19H,3-4,6-7,9-10,12-16H2,1H3,(H,26,33)(H2,27,28,29,30)

> <PUBCHEM_IUPAC_INCHIKEY>
ZXZLVQGNVOKCAS-UHFFFAOYSA-N

> <PUBCHEM_XLOGP3_AA>
3.3

> <PUBCHEM_EXACT_MASS>
466.26923897

> <PUBCHEM_MOLECULAR_FORMULA>
C25H34N6O3

> <PUBCHEM_MOLECULAR_WEIGHT>
466.6

> <PUBCHEM_SMILES>
COC1=CC=CC=C1CNC2=NC=C(C(=N2)NC3CCCC3)C(=O)NCCCN4CCCC4=O

> <PUBCHEM_OPENEYE_CAN_SMILES>
COC1=CC=CC=C1CNC2=NC=C(C(=N2)NC3CCCC3)C(=O)NCCCN4CCCC4=O

> <PUBCHEM_OPENEYE_ISO_SMILES>
COC1=CC=CC=C1CNC2=NC=C(C(=N2)NC3CCCC3)C(=O)NCCCN4CCCC4=O

> <PUBCHEM_CACTVS_TPSA>
108

> <PUBCHEM_MONOISOTOPIC_WEIGHT>
466.26923897

> <PUBCHEM_TOTAL_CHARGE>
0

> <PUBCHEM_HEAVY_ATOM_COUNT>
34

> <PUBCHEM_ATOM_DEF_STEREO_COUNT>
0

> <PUBCHEM_ATOM_UDEF_STEREO_COUNT>
0

> <PUBCHEM_BOND_DEF_STEREO_COUNT>
0

> <PUBCHEM_BOND_UDEF_STEREO_COUNT>
0

> <PUBCHEM_ISOTOPIC_ATOM_COUNT>
0

> <PUBCHEM_COMPONENT_COUNT>
1

> <PUBCHEM_CACTVS_TAUTO_COUNT>
-1

> <PUBCHEM_COORDINATE_TYPE>
1
5
255

> <PUBCHEM_BONDANNOTATIONS>
15  22  8
22  25  8
28  29  8
28  30  8
29  31  8
30  32  8
31  33  8
32  33  8
6  15  8
6  26  8
8  25  8
8  26  8

$$$$
