49830656
  -OEChem-03202503212D

 70 73  0     0  0  0  0  0  0999 V2000
    5.5717    1.1381    0.0000 O   0  0  0  0  0  0  0  0  0  0  0  0
    9.0635   -1.5985    0.0000 O   0  0  0  0  0  0  0  0  0  0  0  0
   13.9382   -3.6570    0.0000 O   0  0  0  0  0  0  0  0  0  0  0  0
    5.4672   -1.8564    0.0000 N   0  0  0  0  0  0  0  0  0  0  0  0
    4.4890   -2.0643    0.0000 N   0  0  0  0  0  0  0  0  0  0  0  0
    6.4378   -0.3619    0.0000 N   0  0  0  0  0  0  0  0  0  0  0  0
    9.5987   -3.2457    0.0000 N   0  0  0  0  0  0  0  0  0  0  0  0
    7.3038    1.1381    0.0000 N   0  0  0  0  0  0  0  0  0  0  0  0
    2.9945   -1.0937    0.0000 C   0  0  0  0  0  0  0  0  0  0  0  0
    3.9890   -1.1983    0.0000 C   0  0  0  0  0  0  0  0  0  0  0  0
    2.0000   -0.9892    0.0000 C   0  0  0  0  0  0  0  0  0  0  0  0
    2.8900   -2.0883    0.0000 C   0  0  0  0  0  0  0  0  0  0  0  0
    3.0990   -0.0992    0.0000 C   0  0  0  0  0  0  0  0  0  0  0  0
    4.6582   -0.4551    0.0000 C   0  0  0  0  0  0  0  0  0  0  0  0
    5.5717   -0.8619    0.0000 C   0  0  0  0  0  0  0  0  0  0  0  0
    6.2103   -2.5255    0.0000 C   0  0  0  0  0  0  0  0  0  0  0  0
    7.1614   -2.2165    0.0000 C   0  0  0  0  0  0  0  0  0  0  0  0
    6.0024   -3.5037    0.0000 C   0  0  0  0  0  0  0  0  0  0  0  0
    7.9045   -2.8856    0.0000 C   0  0  0  0  0  0  0  0  0  0  0  0
    6.4378    0.6381    0.0000 C   0  0  0  0  0  0  0  0  0  0  0  0
    6.7456   -4.1728    0.0000 C   0  0  0  0  0  0  0  0  0  0  0  0
   11.2929   -3.6059    0.0000 C   0  0  0  0  0  0  0  0  0  0  0  0
   10.5498   -2.9367    0.0000 C   0  0  0  0  0  0  0  0  0  0  0  0
    7.6966   -3.8638    0.0000 C   0  0  0  0  0  0  0  0  0  0  0  0
    8.8556   -2.5766    0.0000 C   0  0  0  0  0  0  0  0  0  0  0  0
   12.2440   -3.2968    0.0000 C   0  0  0  0  0  0  0  0  0  0  0  0
    7.3038    2.1381    0.0000 C   0  0  0  0  0  0  0  0  0  0  0  0
    8.1698    2.6381    0.0000 C   0  0  0  0  0  0  0  0  0  0  0  0
    8.1698    3.6381    0.0000 C   0  0  0  0  0  0  0  0  0  0  0  0
   12.9871   -3.9660    0.0000 C   0  0  0  0  0  0  0  0  0  0  0  0
    6.4378    2.6381    0.0000 C   0  0  0  0  0  0  0  0  0  0  0  0
    9.0637    2.1035    0.0000 C   0  0  0  0  0  0  0  0  0  0  0  0
    7.3038    4.1381    0.0000 C   0  0  0  0  0  0  0  0  0  0  0  0
    6.4378    3.6381    0.0000 C   0  0  0  0  0  0  0  0  0  0  0  0
    9.0637    4.1728    0.0000 C   0  0  0  0  0  0  0  0  0  0  0  0
    9.9698    2.6173    0.0000 C   0  0  0  0  0  0  0  0  0  0  0  0
    9.9698    3.6590    0.0000 C   0  0  0  0  0  0  0  0  0  0  0  0
    2.0648   -0.3726    0.0000 H   0  0  0  0  0  0  0  0  0  0  0  0
    1.3834   -0.9244    0.0000 H   0  0  0  0  0  0  0  0  0  0  0  0
    1.9352   -1.6058    0.0000 H   0  0  0  0  0  0  0  0  0  0  0  0
    2.2734   -2.0235    0.0000 H   0  0  0  0  0  0  0  0  0  0  0  0
    2.8252   -2.7049    0.0000 H   0  0  0  0  0  0  0  0  0  0  0  0
    3.5066   -2.1531    0.0000 H   0  0  0  0  0  0  0  0  0  0  0  0
    3.7156   -0.1640    0.0000 H   0  0  0  0  0  0  0  0  0  0  0  0
    3.1639    0.5174    0.0000 H   0  0  0  0  0  0  0  0  0  0  0  0
    2.4824   -0.0344    0.0000 H   0  0  0  0  0  0  0  0  0  0  0  0
    4.5293    0.1513    0.0000 H   0  0  0  0  0  0  0  0  0  0  0  0
    6.9747   -0.6719    0.0000 H   0  0  0  0  0  0  0  0  0  0  0  0
    7.2903   -1.6100    0.0000 H   0  0  0  0  0  0  0  0  0  0  0  0
    5.4128   -3.6953    0.0000 H   0  0  0  0  0  0  0  0  0  0  0  0
   10.8044   -3.9876    0.0000 H   0  0  0  0  0  0  0  0  0  0  0  0
   11.5840   -4.1533    0.0000 H   0  0  0  0  0  0  0  0  0  0  0  0
    6.6167   -4.7792    0.0000 H   0  0  0  0  0  0  0  0  0  0  0  0
   11.0384   -2.5550    0.0000 H   0  0  0  0  0  0  0  0  0  0  0  0
   10.2587   -2.3893    0.0000 H   0  0  0  0  0  0  0  0  0  0  0  0
    8.1574   -4.2786    0.0000 H   0  0  0  0  0  0  0  0  0  0  0  0
   12.7326   -2.9151    0.0000 H   0  0  0  0  0  0  0  0  0  0  0  0
   11.9529   -2.7494    0.0000 H   0  0  0  0  0  0  0  0  0  0  0  0
    9.4698   -3.8522    0.0000 H   0  0  0  0  0  0  0  0  0  0  0  0
    7.8407    0.8281    0.0000 H   0  0  0  0  0  0  0  0  0  0  0  0
   12.4986   -4.3477    0.0000 H   0  0  0  0  0  0  0  0  0  0  0  0
   13.2782   -4.5134    0.0000 H   0  0  0  0  0  0  0  0  0  0  0  0
    5.9008    2.3281    0.0000 H   0  0  0  0  0  0  0  0  0  0  0  0
    9.0566    1.4835    0.0000 H   0  0  0  0  0  0  0  0  0  0  0  0
    7.3038    4.7581    0.0000 H   0  0  0  0  0  0  0  0  0  0  0  0
    5.9008    3.9481    0.0000 H   0  0  0  0  0  0  0  0  0  0  0  0
    9.0566    4.7928    0.0000 H   0  0  0  0  0  0  0  0  0  0  0  0
   10.5055    2.3052    0.0000 H   0  0  0  0  0  0  0  0  0  0  0  0
   10.5055    3.9710    0.0000 H   0  0  0  0  0  0  0  0  0  0  0  0
   14.3989   -4.0718    0.0000 H   0  0  0  0  0  0  0  0  0  0  0  0
  1 20  2  0  0  0  0
  2 25  2  0  0  0  0
  3 30  1  0  0  0  0
  3 70  1  0  0  0  0
  4  5  1  0  0  0  0
  4 15  1  0  0  0  0
  4 16  1  0  0  0  0
  5 10  2  0  0  0  0
  6 15  1  0  0  0  0
  6 20  1  0  0  0  0
  6 48  1  0  0  0  0
  7 23  1  0  0  0  0
  7 25  1  0  0  0  0
  7 59  1  0  0  0  0
  8 20  1  0  0  0  0
  8 27  1  0  0  0  0
  8 60  1  0  0  0  0
  9 10  1  0  0  0  0
  9 11  1  0  0  0  0
  9 12  1  0  0  0  0
  9 13  1  0  0  0  0
 10 14  1  0  0  0  0
 11 38  1  0  0  0  0
 11 39  1  0  0  0  0
 11 40  1  0  0  0  0
 12 41  1  0  0  0  0
 12 42  1  0  0  0  0
 12 43  1  0  0  0  0
 13 44  1  0  0  0  0
 13 45  1  0  0  0  0
 13 46  1  0  0  0  0
 14 15  2  0  0  0  0
 14 47  1  0  0  0  0
 16 17  1  0  0  0  0
 16 18  2  0  0  0  0
 17 19  2  0  0  0  0
 17 49  1  0  0  0  0
 18 21  1  0  0  0  0
 18 50  1  0  0  0  0
 19 24  1  0  0  0  0
 19 25  1  0  0  0  0
 21 24  2  0  0  0  0
 21 53  1  0  0  0  0
 22 23  1  0  0  0  0
 22 26  1  0  0  0  0
 22 51  1  0  0  0  0
 22 52  1  0  0  0  0
 23 54  1  0  0  0  0
 23 55  1  0  0  0  0
 24 56  1  0  0  0  0
 26 30  1  0  0  0  0
 26 57  1  0  0  0  0
 26 58  1  0  0  0  0
 27 28  1  0  0  0  0
 27 31  2  0  0  0  0
 28 29  1  0  0  0  0
 28 32  2  0  0  0  0
 29 33  1  0  0  0  0
 29 35  2  0  0  0  0
 30 61  1  0  0  0  0
 30 62  1  0  0  0  0
 31 34  1  0  0  0  0
 31 63  1  0  0  0  0
 32 36  1  0  0  0  0
 32 64  1  0  0  0  0
 33 34  2  0  0  0  0
 33 65  1  0  0  0  0
 34 66  1  0  0  0  0
 35 37  1  0  0  0  0
 35 67  1  0  0  0  0
 36 37  2  0  0  0  0
 36 68  1  0  0  0  0
 37 69  1  0  0  0  0
M  END
> <PUBCHEM_COMPOUND_CID>
49830656

> <PUBCHEM_COMPOUND_CANONICALIZED>
1

> <PUBCHEM_CACTVS_COMPLEXITY>
756

> <PUBCHEM_CACTVS_HBOND_ACCEPTOR>
4

> <PUBCHEM_CACTVS_HBOND_DONOR>
4

> <PUBCHEM_CACTVS_ROTATABLE_BOND>
9

> <PUBCHEM_CACTVS_SUBSKEYS>
AAADcfB7sAAAAAAAAAAAAAAAAAAAAWAAAAAwYMAAAAAAAADB1AAAHgAYCAAADgjhngYz8NLIAgCqAydydACSBCMlAgAdmKE4ZNiIMHLA1dGE5Qh8nwLIyac8iICPgAAAQAASAAAAAACAACQAAAAAAAAAAA==

> <PUBCHEM_IUPAC_OPENEYE_NAME>
3-[3-tert-butyl-5-(1-naphthylcarbamoylamino)pyrazol-1-yl]-N-(4-hydroxybutyl)benzamide

> <PUBCHEM_IUPAC_CAS_NAME>
3-[3-tert-butyl-5-[[(1-naphthalenylamino)-oxomethyl]amino]-1-pyrazolyl]-N-(4-hydroxybutyl)benzamide

> <PUBCHEM_IUPAC_NAME_MARKUP>
3-[3-<I>tert</I>-butyl-5-(naphthalen-1-ylcarbamoylamino)pyrazol-1-yl]-<I>N</I>-(4-hydroxybutyl)benzamide

> <PUBCHEM_IUPAC_NAME>
3-[3-tert-butyl-5-(naphthalen-1-ylcarbamoylamino)pyrazol-1-yl]-N-(4-hydroxybutyl)benzamide

> <PUBCHEM_IUPAC_SYSTEMATIC_NAME>
3-[3-tert-butyl-5-(naphthalen-1-ylcarbamoylamino)pyrazol-1-yl]-N-(4-oxidanylbutyl)benzamide

> <PUBCHEM_IUPAC_TRADITIONAL_NAME>
3-[3-tert-butyl-5-(1-naphthylcarbamoylamino)pyrazol-1-yl]-N-(4-hydroxybutyl)benzamide

> <PUBCHEM_IUPAC_INCHI>
InChI=1S/C29H33N5O3/c1-29(2,3)25-19-26(32-28(37)31-24-15-9-11-20-10-4-5-14-23(20)24)34(33-25)22-13-8-12-21(18-22)27(36)30-16-6-7-17-35/h4-5,8-15,18-19,35H,6-7,16-17H2,1-3H3,(H,30,36)(H2,31,32,37)

> <PUBCHEM_IUPAC_INCHIKEY>
IZAGQAWPQKJTHN-UHFFFAOYSA-N

> <PUBCHEM_XLOGP3_AA>
5.1

> <PUBCHEM_EXACT_MASS>
499.25833993

> <PUBCHEM_MOLECULAR_FORMULA>
C29H33N5O3

> <PUBCHEM_MOLECULAR_WEIGHT>
499.6

> <PUBCHEM_SMILES>
CC(C)(C)C1=NN(C(=C1)NC(=O)NC2=CC=CC3=CC=CC=C32)C4=CC=CC(=C4)C(=O)NCCCCO

> <PUBCHEM_OPENEYE_CAN_SMILES>
CC(C)(C)C1=NN(C(=C1)NC(=O)NC2=CC=CC3=CC=CC=C32)C4=CC=CC(=C4)C(=O)NCCCCO

> <PUBCHEM_OPENEYE_ISO_SMILES>
CC(C)(C)C1=NN(C(=C1)NC(=O)NC2=CC=CC3=CC=CC=C32)C4=CC=CC(=C4)C(=O)NCCCCO

> <PUBCHEM_CACTVS_TPSA>
108

> <PUBCHEM_MONOISOTOPIC_WEIGHT>
499.25833993

> <PUBCHEM_TOTAL_CHARGE>
0

> <PUBCHEM_HEAVY_ATOM_COUNT>
37

> <PUBCHEM_ATOM_DEF_STEREO_COUNT>
0

> <PUBCHEM_ATOM_UDEF_STEREO_COUNT>
0

> <PUBCHEM_BOND_DEF_STEREO_COUNT>
0

> <PUBCHEM_BOND_UDEF_STEREO_COUNT>
0

> <PUBCHEM_ISOTOPIC_ATOM_COUNT>
0

> <PUBCHEM_COMPONENT_COUNT>
1

> <PUBCHEM_CACTVS_TAUTO_COUNT>
-1

> <PUBCHEM_COORDINATE_TYPE>
1
5
255

> <PUBCHEM_BONDANNOTATIONS>
10  14  8
14  15  8
16  17  8
16  18  8
17  19  8
18  21  8
19  24  8
21  24  8
27  28  8
27  31  8
28  29  8
28  32  8
29  33  8
29  35  8
31  34  8
32  36  8
33  34  8
35  37  8
36  37  8
4  15  8
4  5  8
5  10  8

$$$$
