24947488
  -OEChem-03202502012D

 53 56  0     0  0  0  0  0  0999 V2000
    6.2619   -3.8840    0.0000 F   0  0  0  0  0  0  0  0  0  0  0  0
    9.2619   -2.1519    0.0000 F   0  0  0  0  0  0  0  0  0  0  0  0
    9.1671    4.0241    0.0000 O   0  0  0  0  0  0  0  0  0  0  0  0
    3.7320   -1.6519    0.0000 N   0  0  0  0  0  0  0  0  0  0  0  0
    7.2566    0.9663    0.0000 N   0  0  0  0  0  0  0  0  0  0  0  0
    4.6783   -2.9567    0.0000 N   0  0  0  0  0  0  0  0  0  0  0  0
    5.9674   -0.1905    0.0000 N   0  0  0  0  0  0  0  0  0  0  0  0
    5.6103    1.5044    0.0000 N   0  0  0  0  0  0  0  0  0  0  0  0
    2.0000   -2.6519    0.0000 N   0  0  0  0  0  0  0  0  0  0  0  0
    8.8564    3.0736    0.0000 C   0  0  0  0  0  0  0  0  0  0  0  0
    8.5458    2.1230    0.0000 C   0  0  0  0  0  0  0  0  0  0  0  0
    7.5673    1.9168    0.0000 C   0  0  0  0  0  0  0  0  0  0  0  0
    9.8070    2.7629    0.0000 C   0  0  0  0  0  0  0  0  0  0  0  0
    7.9059    3.3842    0.0000 C   0  0  0  0  0  0  0  0  0  0  0  0
    4.6783   -1.3472    0.0000 C   0  0  0  0  0  0  0  0  0  0  0  0
    5.2619   -2.1519    0.0000 C   0  0  0  0  0  0  0  0  0  0  0  0
    3.7320   -2.6519    0.0000 C   0  0  0  0  0  0  0  0  0  0  0  0
    4.9889   -0.3967    0.0000 C   0  0  0  0  0  0  0  0  0  0  0  0
    6.2781    0.7601    0.0000 C   0  0  0  0  0  0  0  0  0  0  0  0
    6.2619   -2.1519    0.0000 C   0  0  0  0  0  0  0  0  0  0  0  0
    2.8660   -3.1519    0.0000 C   0  0  0  0  0  0  0  0  0  0  0  0
    2.8660   -1.1519    0.0000 C   0  0  0  0  0  0  0  0  0  0  0  0
    4.3211    0.3476    0.0000 C   0  0  0  0  0  0  0  0  0  0  0  0
    2.0000   -1.6519    0.0000 C   0  0  0  0  0  0  0  0  0  0  0  0
    6.7619   -3.0180    0.0000 C   0  0  0  0  0  0  0  0  0  0  0  0
    6.7619   -1.2859    0.0000 C   0  0  0  0  0  0  0  0  0  0  0  0
    2.8660   -4.1519    0.0000 C   0  0  0  0  0  0  0  0  0  0  0  0
    4.6318    1.2982    0.0000 C   0  0  0  0  0  0  0  0  0  0  0  0
    7.7619   -3.0180    0.0000 C   0  0  0  0  0  0  0  0  0  0  0  0
    7.7619   -1.2859    0.0000 C   0  0  0  0  0  0  0  0  0  0  0  0
    8.2619   -2.1519    0.0000 C   0  0  0  0  0  0  0  0  0  0  0  0
    8.5663    1.5034    0.0000 H   0  0  0  0  0  0  0  0  0  0  0  0
    9.1596    2.0357    0.0000 H   0  0  0  0  0  0  0  0  0  0  0  0
    7.5467    2.5365    0.0000 H   0  0  0  0  0  0  0  0  0  0  0  0
    6.9534    2.0042    0.0000 H   0  0  0  0  0  0  0  0  0  0  0  0
    9.6144    2.1736    0.0000 H   0  0  0  0  0  0  0  0  0  0  0  0
   10.3963    2.5703    0.0000 H   0  0  0  0  0  0  0  0  0  0  0  0
    9.9996    3.3522    0.0000 H   0  0  0  0  0  0  0  0  0  0  0  0
    8.0985    3.9735    0.0000 H   0  0  0  0  0  0  0  0  0  0  0  0
    7.3166    3.5768    0.0000 H   0  0  0  0  0  0  0  0  0  0  0  0
    7.7133    2.7949    0.0000 H   0  0  0  0  0  0  0  0  0  0  0  0
    7.6707    0.5048    0.0000 H   0  0  0  0  0  0  0  0  0  0  0  0
    9.7738    4.1519    0.0000 H   0  0  0  0  0  0  0  0  0  0  0  0
    2.8660   -0.5319    0.0000 H   0  0  0  0  0  0  0  0  0  0  0  0
    3.7144    0.2198    0.0000 H   0  0  0  0  0  0  0  0  0  0  0  0
    1.4631   -1.3419    0.0000 H   0  0  0  0  0  0  0  0  0  0  0  0
    6.4519   -0.7490    0.0000 H   0  0  0  0  0  0  0  0  0  0  0  0
    2.2460   -4.1519    0.0000 H   0  0  0  0  0  0  0  0  0  0  0  0
    2.8660   -4.7719    0.0000 H   0  0  0  0  0  0  0  0  0  0  0  0
    3.4860   -4.1519    0.0000 H   0  0  0  0  0  0  0  0  0  0  0  0
    4.2177    1.7596    0.0000 H   0  0  0  0  0  0  0  0  0  0  0  0
    8.0719   -3.5549    0.0000 H   0  0  0  0  0  0  0  0  0  0  0  0
    8.0719   -0.7490    0.0000 H   0  0  0  0  0  0  0  0  0  0  0  0
  1 25  1  0  0  0  0
  2 31  1  0  0  0  0
  3 10  1  0  0  0  0
  3 43  1  0  0  0  0
  4 15  1  0  0  0  0
  4 17  1  0  0  0  0
  4 22  1  0  0  0  0
  5 12  1  0  0  0  0
  5 19  1  0  0  0  0
  5 42  1  0  0  0  0
  6 16  1  0  0  0  0
  6 17  2  0  0  0  0
  7 18  2  0  0  0  0
  7 19  1  0  0  0  0
  8 19  2  0  0  0  0
  8 28  1  0  0  0  0
  9 21  2  0  0  0  0
  9 24  1  0  0  0  0
 10 11  1  0  0  0  0
 10 13  1  0  0  0  0
 10 14  1  0  0  0  0
 11 12  1  0  0  0  0
 11 32  1  0  0  0  0
 11 33  1  0  0  0  0
 12 34  1  0  0  0  0
 12 35  1  0  0  0  0
 13 36  1  0  0  0  0
 13 37  1  0  0  0  0
 13 38  1  0  0  0  0
 14 39  1  0  0  0  0
 14 40  1  0  0  0  0
 14 41  1  0  0  0  0
 15 16  2  0  0  0  0
 15 18  1  0  0  0  0
 16 20  1  0  0  0  0
 17 21  1  0  0  0  0
 18 23  1  0  0  0  0
 20 25  2  0  0  0  0
 20 26  1  0  0  0  0
 21 27  1  0  0  0  0
 22 24  2  0  0  0  0
 22 44  1  0  0  0  0
 23 28  2  0  0  0  0
 23 45  1  0  0  0  0
 24 46  1  0  0  0  0
 25 29  1  0  0  0  0
 26 30  2  0  0  0  0
 26 47  1  0  0  0  0
 27 48  1  0  0  0  0
 27 49  1  0  0  0  0
 27 50  1  0  0  0  0
 28 51  1  0  0  0  0
 29 31  2  0  0  0  0
 29 52  1  0  0  0  0
 30 31  1  0  0  0  0
 30 53  1  0  0  0  0
M  END
> <PUBCHEM_COMPOUND_CID>
24947488

> <PUBCHEM_COMPOUND_CANONICALIZED>
1

> <PUBCHEM_CACTVS_COMPLEXITY>
598

> <PUBCHEM_CACTVS_HBOND_ACCEPTOR>
8

> <PUBCHEM_CACTVS_HBOND_DONOR>
2

> <PUBCHEM_CACTVS_ROTATABLE_BOND>
6

> <PUBCHEM_CACTVS_SUBSKEYS>
AAADceB7oYAAAAAAAAAAAAAAAAAAAWAAAAA8WIAAAAAAAFgB/AAAHwAQCAAADEzBnww/sJ/MGgCgAzZnZACCgC0xEqAJ2KA4dJiIaOLA2dGUZAhqkALIyCcQgMAOAAAAAAAAAAAAAAAAAAAAAAAAAAAAAA==

> <PUBCHEM_IUPAC_OPENEYE_NAME>
4-[[4-[2-(2,4-difluorophenyl)-8-methyl-imidazo[1,2-a]pyrazin-3-yl]pyrimidin-2-yl]amino]-2-methyl-butan-2-ol

> <PUBCHEM_IUPAC_CAS_NAME>
4-[[4-[2-(2,4-difluorophenyl)-8-methyl-3-imidazo[1,2-a]pyrazinyl]-2-pyrimidinyl]amino]-2-methyl-2-butanol

> <PUBCHEM_IUPAC_NAME_MARKUP>
4-[[4-[2-(2,4-difluorophenyl)-8-methylimidazo[1,2-a]pyrazin-3-yl]pyrimidin-2-yl]amino]-2-methylbutan-2-ol

> <PUBCHEM_IUPAC_NAME>
4-[[4-[2-(2,4-difluorophenyl)-8-methylimidazo[1,2-a]pyrazin-3-yl]pyrimidin-2-yl]amino]-2-methylbutan-2-ol

> <PUBCHEM_IUPAC_SYSTEMATIC_NAME>
4-[[4-[2-[2,4-bis(fluoranyl)phenyl]-8-methyl-imidazo[1,2-a]pyrazin-3-yl]pyrimidin-2-yl]amino]-2-methyl-butan-2-ol

> <PUBCHEM_IUPAC_TRADITIONAL_NAME>
4-[[4-[2-(2,4-difluorophenyl)-8-methyl-imidazo[1,2-a]pyrazin-3-yl]pyrimidin-2-yl]amino]-2-methyl-butan-2-ol

> <PUBCHEM_IUPAC_INCHI>
InChI=1S/C22H22F2N6O/c1-13-20-29-18(15-5-4-14(23)12-16(15)24)19(30(20)11-10-25-13)17-6-8-26-21(28-17)27-9-7-22(2,3)31/h4-6,8,10-12,31H,7,9H2,1-3H3,(H,26,27,28)

> <PUBCHEM_IUPAC_INCHIKEY>
YPDWGKSFVMASOZ-UHFFFAOYSA-N

> <PUBCHEM_XLOGP3_AA>
4.1

> <PUBCHEM_EXACT_MASS>
424.18231567

> <PUBCHEM_MOLECULAR_FORMULA>
C22H22F2N6O

> <PUBCHEM_MOLECULAR_WEIGHT>
424.4

> <PUBCHEM_SMILES>
CC1=NC=CN2C1=NC(=C2C3=NC(=NC=C3)NCCC(C)(C)O)C4=C(C=C(C=C4)F)F

> <PUBCHEM_OPENEYE_CAN_SMILES>
CC1=NC=CN2C1=NC(=C2C3=NC(=NC=C3)NCCC(C)(C)O)C4=C(C=C(C=C4)F)F

> <PUBCHEM_OPENEYE_ISO_SMILES>
CC1=NC=CN2C1=NC(=C2C3=NC(=NC=C3)NCCC(C)(C)O)C4=C(C=C(C=C4)F)F

> <PUBCHEM_CACTVS_TPSA>
88.2

> <PUBCHEM_MONOISOTOPIC_WEIGHT>
424.18231567

> <PUBCHEM_TOTAL_CHARGE>
0

> <PUBCHEM_HEAVY_ATOM_COUNT>
31

> <PUBCHEM_ATOM_DEF_STEREO_COUNT>
0

> <PUBCHEM_ATOM_UDEF_STEREO_COUNT>
0

> <PUBCHEM_BOND_DEF_STEREO_COUNT>
0

> <PUBCHEM_BOND_UDEF_STEREO_COUNT>
0

> <PUBCHEM_ISOTOPIC_ATOM_COUNT>
0

> <PUBCHEM_COMPONENT_COUNT>
1

> <PUBCHEM_CACTVS_TAUTO_COUNT>
-1

> <PUBCHEM_COORDINATE_TYPE>
1
5
255

> <PUBCHEM_BONDANNOTATIONS>
15  16  8
17  21  8
18  23  8
20  25  8
20  26  8
22  24  8
23  28  8
25  29  8
26  30  8
29  31  8
30  31  8
4  15  8
4  17  8
4  22  8
6  16  8
6  17  8
7  18  8
7  19  8
8  19  8
8  28  8
9  21  8
9  24  8

$$$$
