44378516
  -OEChem-03202505062D

162161  0     1  0  0  0  0  0999 V2000
   12.4651    3.2500    0.0000 O   0  0  0  0  0  0  0  0  0  0  0  0
   15.1972    0.7500    0.0000 O   0  0  0  0  0  0  0  0  0  0  0  0
    9.7331    0.7500    0.0000 O   0  0  0  0  0  0  0  0  0  0  0  0
   14.7286   -6.2500    0.0000 O   0  0  0  0  0  0  0  0  0  0  0  0
    7.0010    3.2500    0.0000 O   0  0  0  0  0  0  0  0  0  0  0  0
   11.9965   -3.7500    0.0000 O   0  0  0  0  0  0  0  0  0  0  0  0
    3.4030    2.2500    0.0000 O   0  0  0  0  0  0  0  0  0  0  0  0
    4.2690    0.7500    0.0000 O   0  0  0  0  0  0  0  0  0  0  0  0
   11.9965   -6.7500    0.0000 O   0  0  0  0  0  0  0  0  0  0  0  0
    9.2645   -6.2500    0.0000 O   0  0  0  0  0  0  0  0  0  0  0  0
   14.1972    2.2500    0.0000 N   0  0  0  0  0  0  0  0  0  0  0  0
   11.4651    1.7500    0.0000 N   0  0  0  0  0  0  0  0  0  0  0  0
   16.9292    1.7500    0.0000 N   0  0  0  0  0  0  0  0  0  0  0  0
    8.7331    2.2500    0.0000 N   0  0  0  0  0  0  0  0  0  0  0  0
   12.9965   -5.2500    0.0000 N   0  0  0  0  0  0  0  0  0  0  0  0
    6.0010    1.7500    0.0000 N   0  0  0  0  0  0  0  0  0  0  0  0
   11.5991   -1.2500    0.0000 N   0  0  0  0  0  0  0  0  0  0  0  0
    8.8671    5.2500    0.0000 N   0  0  0  0  0  0  0  0  0  0  0  0
   17.7953    5.2500    0.0000 N   0  0  0  0  0  0  0  0  0  0  0  0
   10.2645   -4.7500    0.0000 N   0  0  0  0  0  0  0  0  0  0  0  0
    6.1350   -1.2500    0.0000 N   0  0  0  0  0  0  0  0  0  0  0  0
   16.4606   -3.2500    0.0000 N   0  0  0  0  0  0  0  0  0  0  0  0
    3.4030    5.2500    0.0000 N   0  0  0  0  0  0  0  0  0  0  0  0
   10.7331   -2.7500    0.0000 N   0  0  0  0  0  0  0  0  0  0  0  0
   12.4651   -2.7500    0.0000 N   0  0  0  0  0  0  0  0  0  0  0  0
    8.0010    6.7500    0.0000 N   0  0  0  0  0  0  0  0  0  0  0  0
    9.7331    6.7500    0.0000 N   0  0  0  0  0  0  0  0  0  0  0  0
   18.6613    6.7500    0.0000 N   0  0  0  0  0  0  0  0  0  0  0  0
   16.9292    6.7500    0.0000 N   0  0  0  0  0  0  0  0  0  0  0  0
    7.5324   -5.2500    0.0000 N   0  0  0  0  0  0  0  0  0  0  0  0
    5.2690   -2.7500    0.0000 N   0  0  0  0  0  0  0  0  0  0  0  0
    7.0010   -2.7500    0.0000 N   0  0  0  0  0  0  0  0  0  0  0  0
   18.1927   -3.2500    0.0000 N   0  0  0  0  0  0  0  0  0  0  0  0
   17.3267   -4.7500    0.0000 N   0  0  0  0  0  0  0  0  0  0  0  0
    2.5369    6.7500    0.0000 N   0  0  0  0  0  0  0  0  0  0  0  0
    4.2690    6.7500    0.0000 N   0  0  0  0  0  0  0  0  0  0  0  0
   13.3312    1.7500    0.0000 C   0  0  1  0  0  0  0  0  0  0  0  0
   10.5991    2.2500    0.0000 C   0  0  1  0  0  0  0  0  0  0  0  0
   16.0632    2.2500    0.0000 C   0  0  1  0  0  0  0  0  0  0  0  0
   13.3312    0.7500    0.0000 C   0  0  0  0  0  0  0  0  0  0  0  0
   10.5991    3.2500    0.0000 C   0  0  0  0  0  0  0  0  0  0  0  0
   16.0632    3.2500    0.0000 C   0  0  0  0  0  0  0  0  0  0  0  0
    7.8671    1.7500    0.0000 C   0  0  1  0  0  0  0  0  0  0  0  0
   12.4651    2.2500    0.0000 C   0  0  0  0  0  0  0  0  0  0  0  0
   15.1972    1.7500    0.0000 C   0  0  0  0  0  0  0  0  0  0  0  0
    9.7331    1.7500    0.0000 C   0  0  0  0  0  0  0  0  0  0  0  0
   13.8626   -4.7500    0.0000 C   0  0  1  0  0  0  0  0  0  0  0  0
   12.4651    0.2500    0.0000 C   0  0  0  0  0  0  0  0  0  0  0  0
    7.8671    0.7500    0.0000 C   0  0  0  0  0  0  0  0  0  0  0  0
    9.7331    3.7500    0.0000 C   0  0  0  0  0  0  0  0  0  0  0  0
   16.9292    3.7500    0.0000 C   0  0  0  0  0  0  0  0  0  0  0  0
   13.8626   -3.7500    0.0000 C   0  0  0  0  0  0  0  0  0  0  0  0
   14.7286   -5.2500    0.0000 C   0  0  0  0  0  0  0  0  0  0  0  0
    7.0010    0.2500    0.0000 C   0  0  0  0  0  0  0  0  0  0  0  0
    7.0010    2.2500    0.0000 C   0  0  0  0  0  0  0  0  0  0  0  0
   14.7286   -3.2500    0.0000 C   0  0  0  0  0  0  0  0  0  0  0  0
   12.4651   -0.7500    0.0000 C   0  0  0  0  0  0  0  0  0  0  0  0
    9.7331    4.7500    0.0000 C   0  0  0  0  0  0  0  0  0  0  0  0
    5.1350    2.2500    0.0000 C   0  0  1  0  0  0  0  0  0  0  0  0
   16.9292    4.7500    0.0000 C   0  0  0  0  0  0  0  0  0  0  0  0
    5.1350    3.2500    0.0000 C   0  0  0  0  0  0  0  0  0  0  0  0
    7.0010   -0.7500    0.0000 C   0  0  0  0  0  0  0  0  0  0  0  0
   15.5946   -3.7500    0.0000 C   0  0  0  0  0  0  0  0  0  0  0  0
   11.9965   -4.7500    0.0000 C   0  0  0  0  0  0  0  0  0  0  0  0
   11.1305   -5.2500    0.0000 C   0  0  2  0  0  0  0  0  0  0  0  0
    4.2690    3.7500    0.0000 C   0  0  0  0  0  0  0  0  0  0  0  0
    4.2690    1.7500    0.0000 C   0  0  0  0  0  0  0  0  0  0  0  0
    4.2690    4.7500    0.0000 C   0  0  0  0  0  0  0  0  0  0  0  0
   11.1305   -6.2500    0.0000 C   0  0  0  0  0  0  0  0  0  0  0  0
   11.5991   -2.2500    0.0000 C   0  0  0  0  0  0  0  0  0  0  0  0
    8.8671    6.2500    0.0000 C   0  0  0  0  0  0  0  0  0  0  0  0
    9.2645   -5.2500    0.0000 C   0  0  0  0  0  0  0  0  0  0  0  0
   17.7953    6.2500    0.0000 C   0  0  0  0  0  0  0  0  0  0  0  0
    8.3985   -4.7500    0.0000 C   0  0  2  0  0  0  0  0  0  0  0  0
    6.1350   -2.2500    0.0000 C   0  0  0  0  0  0  0  0  0  0  0  0
   17.3267   -3.7500    0.0000 C   0  0  0  0  0  0  0  0  0  0  0  0
    8.3985   -3.7500    0.0000 C   0  0  0  0  0  0  0  0  0  0  0  0
    3.4030    6.2500    0.0000 C   0  0  0  0  0  0  0  0  0  0  0  0
   13.8681    1.4400    0.0000 H   0  0  0  0  0  0  0  0  0  0  0  0
   11.1360    2.5600    0.0000 H   0  0  0  0  0  0  0  0  0  0  0  0
   16.6001    2.5600    0.0000 H   0  0  0  0  0  0  0  0  0  0  0  0
   13.5432    0.1674    0.0000 H   0  0  0  0  0  0  0  0  0  0  0  0
   13.9417    0.8577    0.0000 H   0  0  0  0  0  0  0  0  0  0  0  0
   11.2097    3.1423    0.0000 H   0  0  0  0  0  0  0  0  0  0  0  0
   10.8112    3.8326    0.0000 H   0  0  0  0  0  0  0  0  0  0  0  0
   15.8512    3.8326    0.0000 H   0  0  0  0  0  0  0  0  0  0  0  0
   15.4526    3.1423    0.0000 H   0  0  0  0  0  0  0  0  0  0  0  0
    8.4040    1.4400    0.0000 H   0  0  0  0  0  0  0  0  0  0  0  0
   14.7341    2.5600    0.0000 H   0  0  0  0  0  0  0  0  0  0  0  0
   12.0021    1.4400    0.0000 H   0  0  0  0  0  0  0  0  0  0  0  0
   13.3256   -4.4400    0.0000 H   0  0  0  0  0  0  0  0  0  0  0  0
   12.2531    0.8326    0.0000 H   0  0  0  0  0  0  0  0  0  0  0  0
   11.8546    0.1423    0.0000 H   0  0  0  0  0  0  0  0  0  0  0  0
    8.0791    0.1674    0.0000 H   0  0  0  0  0  0  0  0  0  0  0  0
    8.4776    0.8577    0.0000 H   0  0  0  0  0  0  0  0  0  0  0  0
   17.4662    1.4400    0.0000 H   0  0  0  0  0  0  0  0  0  0  0  0
    9.1225    3.8577    0.0000 H   0  0  0  0  0  0  0  0  0  0  0  0
    9.5210    3.1674    0.0000 H   0  0  0  0  0  0  0  0  0  0  0  0
    9.2700    2.5600    0.0000 H   0  0  0  0  0  0  0  0  0  0  0  0
   17.1413    3.1674    0.0000 H   0  0  0  0  0  0  0  0  0  0  0  0
   17.5398    3.8577    0.0000 H   0  0  0  0  0  0  0  0  0  0  0  0
   13.6505   -3.1674    0.0000 H   0  0  0  0  0  0  0  0  0  0  0  0
   13.2520   -3.8577    0.0000 H   0  0  0  0  0  0  0  0  0  0  0  0
    6.7890    0.8326    0.0000 H   0  0  0  0  0  0  0  0  0  0  0  0
    6.3905    0.1423    0.0000 H   0  0  0  0  0  0  0  0  0  0  0  0
   15.1271   -2.7750    0.0000 H   0  0  0  0  0  0  0  0  0  0  0  0
   14.3301   -2.7750    0.0000 H   0  0  0  0  0  0  0  0  0  0  0  0
   12.6772   -1.3326    0.0000 H   0  0  0  0  0  0  0  0  0  0  0  0
   13.0757   -0.6423    0.0000 H   0  0  0  0  0  0  0  0  0  0  0  0
   10.3437    4.6423    0.0000 H   0  0  0  0  0  0  0  0  0  0  0  0
    9.9451    5.3326    0.0000 H   0  0  0  0  0  0  0  0  0  0  0  0
    5.6720    2.5600    0.0000 H   0  0  0  0  0  0  0  0  0  0  0  0
   13.5335   -5.5600    0.0000 H   0  0  0  0  0  0  0  0  0  0  0  0
   16.7172    5.3326    0.0000 H   0  0  0  0  0  0  0  0  0  0  0  0
   16.3187    4.6423    0.0000 H   0  0  0  0  0  0  0  0  0  0  0  0
    6.5380    1.4400    0.0000 H   0  0  0  0  0  0  0  0  0  0  0  0
    5.7456    3.1423    0.0000 H   0  0  0  0  0  0  0  0  0  0  0  0
    5.3471    3.8326    0.0000 H   0  0  0  0  0  0  0  0  0  0  0  0
    7.2131   -1.3326    0.0000 H   0  0  0  0  0  0  0  0  0  0  0  0
    7.6116   -0.6423    0.0000 H   0  0  0  0  0  0  0  0  0  0  0  0
   15.1961   -4.2250    0.0000 H   0  0  0  0  0  0  0  0  0  0  0  0
   15.9931   -4.2250    0.0000 H   0  0  0  0  0  0  0  0  0  0  0  0
   11.1305   -4.6300    0.0000 H   0  0  0  0  0  0  0  0  0  0  0  0
    3.6584    3.8577    0.0000 H   0  0  0  0  0  0  0  0  0  0  0  0
    4.0569    3.1674    0.0000 H   0  0  0  0  0  0  0  0  0  0  0  0
    4.8796    4.6423    0.0000 H   0  0  0  0  0  0  0  0  0  0  0  0
    4.4810    5.3326    0.0000 H   0  0  0  0  0  0  0  0  0  0  0  0
   10.5199   -6.1423    0.0000 H   0  0  0  0  0  0  0  0  0  0  0  0
   10.9185   -6.8326    0.0000 H   0  0  0  0  0  0  0  0  0  0  0  0
   10.8014   -4.4400    0.0000 H   0  0  0  0  0  0  0  0  0  0  0  0
    7.8615   -4.4400    0.0000 H   0  0  0  0  0  0  0  0  0  0  0  0
    2.8660    1.9400    0.0000 H   0  0  0  0  0  0  0  0  0  0  0  0
   11.9965   -7.3700    0.0000 H   0  0  0  0  0  0  0  0  0  0  0  0
    9.0185   -3.7500    0.0000 H   0  0  0  0  0  0  0  0  0  0  0  0
    8.3985   -3.1300    0.0000 H   0  0  0  0  0  0  0  0  0  0  0  0
    7.7785   -3.7500    0.0000 H   0  0  0  0  0  0  0  0  0  0  0  0
   10.1962   -2.4400    0.0000 H   0  0  0  0  0  0  0  0  0  0  0  0
   10.7331   -3.3700    0.0000 H   0  0  0  0  0  0  0  0  0  0  0  0
   13.0021   -2.4400    0.0000 H   0  0  0  0  0  0  0  0  0  0  0  0
   12.4651   -3.3700    0.0000 H   0  0  0  0  0  0  0  0  0  0  0  0
    8.0010    7.3700    0.0000 H   0  0  0  0  0  0  0  0  0  0  0  0
    7.4641    6.4400    0.0000 H   0  0  0  0  0  0  0  0  0  0  0  0
    9.7331    7.3700    0.0000 H   0  0  0  0  0  0  0  0  0  0  0  0
   10.2700    6.4400    0.0000 H   0  0  0  0  0  0  0  0  0  0  0  0
   18.6613    7.3700    0.0000 H   0  0  0  0  0  0  0  0  0  0  0  0
   19.1982    6.4400    0.0000 H   0  0  0  0  0  0  0  0  0  0  0  0
   16.9292    7.3700    0.0000 H   0  0  0  0  0  0  0  0  0  0  0  0
   16.3923    6.4400    0.0000 H   0  0  0  0  0  0  0  0  0  0  0  0
    7.5324   -5.8700    0.0000 H   0  0  0  0  0  0  0  0  0  0  0  0
    8.0694   -4.9400    0.0000 H   0  0  0  0  0  0  0  0  0  0  0  0
    4.7320   -2.4400    0.0000 H   0  0  0  0  0  0  0  0  0  0  0  0
    5.2690   -3.3700    0.0000 H   0  0  0  0  0  0  0  0  0  0  0  0
    7.5380   -2.4400    0.0000 H   0  0  0  0  0  0  0  0  0  0  0  0
    7.0010   -3.3700    0.0000 H   0  0  0  0  0  0  0  0  0  0  0  0
   18.7296   -3.5600    0.0000 H   0  0  0  0  0  0  0  0  0  0  0  0
   18.1927   -2.6300    0.0000 H   0  0  0  0  0  0  0  0  0  0  0  0
   17.8636   -5.0600    0.0000 H   0  0  0  0  0  0  0  0  0  0  0  0
   16.7897   -5.0600    0.0000 H   0  0  0  0  0  0  0  0  0  0  0  0
    2.5369    7.3700    0.0000 H   0  0  0  0  0  0  0  0  0  0  0  0
    2.0000    6.4400    0.0000 H   0  0  0  0  0  0  0  0  0  0  0  0
    4.2690    7.3700    0.0000 H   0  0  0  0  0  0  0  0  0  0  0  0
    4.8059    6.4400    0.0000 H   0  0  0  0  0  0  0  0  0  0  0  0
  1 44  2  0  0  0  0
  2 45  2  0  0  0  0
  3 46  2  0  0  0  0
  4 53  2  0  0  0  0
  5 55  2  0  0  0  0
  6 64  2  0  0  0  0
  7 67  1  0  0  0  0
  7132  1  0  0  0  0
  8 67  2  0  0  0  0
  9 69  1  0  0  0  0
  9133  1  0  0  0  0
 10 72  2  0  0  0  0
 37 11  1  1  0  0  0
 11 45  1  0  0  0  0
 11 89  1  0  0  0  0
 38 12  1  6  0  0  0
 12 44  1  0  0  0  0
 12 90  1  0  0  0  0
 39 13  1  6  0  0  0
 13 53  1  0  0  0  0
 13 96  1  0  0  0  0
 43 14  1  1  0  0  0
 14 46  1  0  0  0  0
 14 99  1  0  0  0  0
 47 15  1  1  0  0  0
 15 64  1  0  0  0  0
 15113  1  0  0  0  0
 16 55  1  0  0  0  0
 59 16  1  6  0  0  0
 16116  1  0  0  0  0
 17 57  1  0  0  0  0
 17 70  2  0  0  0  0
 18 58  1  0  0  0  0
 18 71  2  0  0  0  0
 19 60  1  0  0  0  0
 19 73  2  0  0  0  0
 65 20  1  6  0  0  0
 20 72  1  0  0  0  0
 20130  1  0  0  0  0
 21 62  1  0  0  0  0
 21 75  2  0  0  0  0
 22 63  1  0  0  0  0
 22 76  2  0  0  0  0
 23 68  1  0  0  0  0
 23 78  2  0  0  0  0
 24 70  1  0  0  0  0
 24137  1  0  0  0  0
 24138  1  0  0  0  0
 25 70  1  0  0  0  0
 25139  1  0  0  0  0
 25140  1  0  0  0  0
 26 71  1  0  0  0  0
 26141  1  0  0  0  0
 26142  1  0  0  0  0
 27 71  1  0  0  0  0
 27143  1  0  0  0  0
 27144  1  0  0  0  0
 28 73  1  0  0  0  0
 28145  1  0  0  0  0
 28146  1  0  0  0  0
 29 73  1  0  0  0  0
 29147  1  0  0  0  0
 29148  1  0  0  0  0
 74 30  1  1  0  0  0
 30149  1  0  0  0  0
 30150  1  0  0  0  0
 31 75  1  0  0  0  0
 31151  1  0  0  0  0
 31152  1  0  0  0  0
 32 75  1  0  0  0  0
 32153  1  0  0  0  0
 32154  1  0  0  0  0
 33 76  1  0  0  0  0
 33155  1  0  0  0  0
 33156  1  0  0  0  0
 34 76  1  0  0  0  0
 34157  1  0  0  0  0
 34158  1  0  0  0  0
 35 78  1  0  0  0  0
 35159  1  0  0  0  0
 35160  1  0  0  0  0
 36 78  1  0  0  0  0
 36161  1  0  0  0  0
 36162  1  0  0  0  0
 37 40  1  0  0  0  0
 37 44  1  0  0  0  0
 37 79  1  0  0  0  0
 38 41  1  0  0  0  0
 38 46  1  0  0  0  0
 38 80  1  0  0  0  0
 39 42  1  0  0  0  0
 39 45  1  0  0  0  0
 39 81  1  0  0  0  0
 40 48  1  0  0  0  0
 40 82  1  0  0  0  0
 40 83  1  0  0  0  0
 41 50  1  0  0  0  0
 41 84  1  0  0  0  0
 41 85  1  0  0  0  0
 42 51  1  0  0  0  0
 42 86  1  0  0  0  0
 42 87  1  0  0  0  0
 43 49  1  0  0  0  0
 43 55  1  0  0  0  0
 43 88  1  0  0  0  0
 47 52  1  0  0  0  0
 47 53  1  0  0  0  0
 47 91  1  0  0  0  0
 48 57  1  0  0  0  0
 48 92  1  0  0  0  0
 48 93  1  0  0  0  0
 49 54  1  0  0  0  0
 49 94  1  0  0  0  0
 49 95  1  0  0  0  0
 50 58  1  0  0  0  0
 50 97  1  0  0  0  0
 50 98  1  0  0  0  0
 51 60  1  0  0  0  0
 51100  1  0  0  0  0
 51101  1  0  0  0  0
 52 56  1  0  0  0  0
 52102  1  0  0  0  0
 52103  1  0  0  0  0
 54 62  1  0  0  0  0
 54104  1  0  0  0  0
 54105  1  0  0  0  0
 56 63  1  0  0  0  0
 56106  1  0  0  0  0
 56107  1  0  0  0  0
 57108  1  0  0  0  0
 57109  1  0  0  0  0
 58110  1  0  0  0  0
 58111  1  0  0  0  0
 59 61  1  0  0  0  0
 59 67  1  0  0  0  0
 59112  1  0  0  0  0
 60114  1  0  0  0  0
 60115  1  0  0  0  0
 61 66  1  0  0  0  0
 61117  1  0  0  0  0
 61118  1  0  0  0  0
 62119  1  0  0  0  0
 62120  1  0  0  0  0
 63121  1  0  0  0  0
 63122  1  0  0  0  0
 64 65  1  0  0  0  0
 65 69  1  0  0  0  0
 65123  1  0  0  0  0
 66 68  1  0  0  0  0
 66124  1  0  0  0  0
 66125  1  0  0  0  0
 68126  1  0  0  0  0
 68127  1  0  0  0  0
 69128  1  0  0  0  0
 69129  1  0  0  0  0
 72 74  1  0  0  0  0
 74 77  1  0  0  0  0
 74131  1  0  0  0  0
 77134  1  0  0  0  0
 77135  1  0  0  0  0
 77136  1  0  0  0  0
M  END
> <PUBCHEM_COMPOUND_CID>
44378516

> <PUBCHEM_COMPOUND_CANONICALIZED>
1

> <PUBCHEM_CACTVS_COMPLEXITY>
2120

> <PUBCHEM_CACTVS_HBOND_ACCEPTOR>
17

> <PUBCHEM_CACTVS_HBOND_DONOR>
22

> <PUBCHEM_CACTVS_ROTATABLE_BOND>
40

> <PUBCHEM_CACTVS_SUBSKEYS>
AAADcfB//AAAAAAAAAAAAAAAAAAAAAAAAAAAAAAAAAAAAAAAAAAAHgAQCAAACCjhgAYDCALAAgAoAAGQPAAAAAEAAAAAAIGIAAACUBYAgCAUQAAGNgCQAACYEQAAAAAAAAAAAAAAAAAAAAAAAAAAAAAAAA==

> <PUBCHEM_IUPAC_OPENEYE_NAME>
(2S)-2-[[(2S)-2-[[(2S)-2-[[(2S)-2-[[(2S)-2-[[(2S)-2-[[(2S)-2-[[(2S)-2-aminopropanoyl]amino]-3-hydroxy-propanoyl]amino]-5-guanidino-pentanoyl]amino]-5-guanidino-pentanoyl]amino]-5-guanidino-pentanoyl]amino]-5-guanidino-pentanoyl]amino]-5-guanidino-pentanoyl]amino]-5-guanidino-pentanoic acid

> <PUBCHEM_IUPAC_CAS_NAME>
(2S)-2-[[(2S)-2-[[(2S)-2-[[(2S)-2-[[(2S)-2-[[(2S)-2-[[(2S)-2-[[(2S)-2-amino-1-oxopropyl]amino]-3-hydroxy-1-oxopropyl]amino]-5-(diaminomethylideneamino)-1-oxopentyl]amino]-5-(diaminomethylideneamino)-1-oxopentyl]amino]-5-(diaminomethylideneamino)-1-oxopentyl]amino]-5-(diaminomethylideneamino)-1-oxopentyl]amino]-5-(diaminomethylideneamino)-1-oxopentyl]amino]-5-(diaminomethylideneamino)pentanoic acid

> <PUBCHEM_IUPAC_NAME_MARKUP>
(2<I>S</I>)-2-[[(2<I>S</I>)-2-[[(2<I>S</I>)-2-[[(2<I>S</I>)-2-[[(2<I>S</I>)-2-[[(2<I>S</I>)-2-[[(2<I>S</I>)-2-[[(2<I>S</I>)-2-aminopropanoyl]amino]-3-hydroxypropanoyl]amino]-5-(diaminomethylideneamino)pentanoyl]amino]-5-(diaminomethylideneamino)pentanoyl]amino]-5-(diaminomethylideneamino)pentanoyl]amino]-5-(diaminomethylideneamino)pentanoyl]amino]-5-(diaminomethylideneamino)pentanoyl]amino]-5-(diaminomethylideneamino)pentanoic acid

> <PUBCHEM_IUPAC_NAME>
(2S)-2-[[(2S)-2-[[(2S)-2-[[(2S)-2-[[(2S)-2-[[(2S)-2-[[(2S)-2-[[(2S)-2-aminopropanoyl]amino]-3-hydroxypropanoyl]amino]-5-(diaminomethylideneamino)pentanoyl]amino]-5-(diaminomethylideneamino)pentanoyl]amino]-5-(diaminomethylideneamino)pentanoyl]amino]-5-(diaminomethylideneamino)pentanoyl]amino]-5-(diaminomethylideneamino)pentanoyl]amino]-5-(diaminomethylideneamino)pentanoic acid

> <PUBCHEM_IUPAC_SYSTEMATIC_NAME>
(2S)-2-[[(2S)-2-[[(2S)-2-[[(2S)-2-[[(2S)-2-[[(2S)-2-[[(2S)-2-[[(2S)-2-azanylpropanoyl]amino]-3-oxidanyl-propanoyl]amino]-5-[bis(azanyl)methylideneamino]pentanoyl]amino]-5-[bis(azanyl)methylideneamino]pentanoyl]amino]-5-[bis(azanyl)methylideneamino]pentanoyl]amino]-5-[bis(azanyl)methylideneamino]pentanoyl]amino]-5-[bis(azanyl)methylideneamino]pentanoyl]amino]-5-[bis(azanyl)methylideneamino]pentanoic acid

> <PUBCHEM_IUPAC_TRADITIONAL_NAME>
(2S)-2-[[(2S)-2-[[(2S)-2-[[(2S)-2-[[(2S)-2-[[(2S)-2-[[(2S)-2-[[(2S)-2-aminopropanoyl]amino]-3-hydroxy-propanoyl]amino]-5-guanidino-pentanoyl]amino]-5-guanidino-pentanoyl]amino]-5-guanidino-pentanoyl]amino]-5-guanidino-pentanoyl]amino]-5-guanidino-pentanoyl]amino]-5-guanidino-valeric acid

> <PUBCHEM_IUPAC_INCHI>
InChI=1S/C42H84N26O10/c1-21(43)29(70)68-28(20-69)35(76)66-25(11-5-17-59-40(50)51)33(74)64-23(9-3-15-57-38(46)47)31(72)62-22(8-2-14-56-37(44)45)30(71)63-24(10-4-16-58-39(48)49)32(73)65-26(12-6-18-60-41(52)53)34(75)67-27(36(77)78)13-7-19-61-42(54)55/h21-28,69H,2-20,43H2,1H3,(H,62,72)(H,63,71)(H,64,74)(H,65,73)(H,66,76)(H,67,75)(H,68,70)(H,77,78)(H4,44,45,56)(H4,46,47,57)(H4,48,49,58)(H4,50,51,59)(H4,52,53,60)(H4,54,55,61)/t21-,22-,23-,24-,25-,26-,27-,28-/m0/s1

> <PUBCHEM_IUPAC_INCHIKEY>
JYTVNNJHIBJOGF-VXBMVYAYSA-N

> <PUBCHEM_XLOGP3_AA>
-13

> <PUBCHEM_EXACT_MASS>
1112.68637298

> <PUBCHEM_MOLECULAR_FORMULA>
C42H84N26O10

> <PUBCHEM_MOLECULAR_WEIGHT>
1113.3

> <PUBCHEM_SMILES>
C[C@@H](C(=O)N[C@@H](CO)C(=O)N[C@@H](CCCN=C(N)N)C(=O)N[C@@H](CCCN=C(N)N)C(=O)N[C@@H](CCCN=C(N)N)C(=O)N[C@@H](CCCN=C(N)N)C(=O)N[C@@H](CCCN=C(N)N)C(=O)N[C@@H](CCCN=C(N)N)C(=O)O)N

> <PUBCHEM_OPENEYE_CAN_SMILES>
CC(C(=O)NC(CO)C(=O)NC(CCCN=C(N)N)C(=O)NC(CCCN=C(N)N)C(=O)NC(CCCN=C(N)N)C(=O)NC(CCCN=C(N)N)C(=O)NC(CCCN=C(N)N)C(=O)NC(CCCN=C(N)N)C(=O)O)N

> <PUBCHEM_OPENEYE_ISO_SMILES>
C[C@@H](C(=O)N[C@@H](CO)C(=O)N[C@@H](CCCN=C(N)N)C(=O)N[C@@H](CCCN=C(N)N)C(=O)N[C@@H](CCCN=C(N)N)C(=O)N[C@@H](CCCN=C(N)N)C(=O)N[C@@H](CCCN=C(N)N)C(=O)N[C@@H](CCCN=C(N)N)C(=O)O)N

> <PUBCHEM_CACTVS_TPSA>
674

> <PUBCHEM_MONOISOTOPIC_WEIGHT>
1112.68637298

> <PUBCHEM_TOTAL_CHARGE>
0

> <PUBCHEM_HEAVY_ATOM_COUNT>
78

> <PUBCHEM_ATOM_DEF_STEREO_COUNT>
8

> <PUBCHEM_ATOM_UDEF_STEREO_COUNT>
0

> <PUBCHEM_BOND_DEF_STEREO_COUNT>
0

> <PUBCHEM_BOND_UDEF_STEREO_COUNT>
0

> <PUBCHEM_ISOTOPIC_ATOM_COUNT>
0

> <PUBCHEM_COMPONENT_COUNT>
1

> <PUBCHEM_CACTVS_TAUTO_COUNT>
-1

> <PUBCHEM_COORDINATE_TYPE>
1
5
255

> <PUBCHEM_BONDANNOTATIONS>
37  11  5
38  12  6
39  13  6
43  14  5
47  15  5
59  16  6
65  20  6
74  30  5

$$$$
