49830860
  -OEChem-03202501202D

 31 31  0     0  0  0  0  0  0999 V2000
    7.1962   -0.4050    0.0000 O   0  0  0  0  0  0  0  0  0  0  0  0
    2.8660    1.0950    0.0000 O   0  0  0  0  0  0  0  0  0  0  0  0
    5.4641   -0.4050    0.0000 N   0  0  0  0  0  0  0  0  0  0  0  0
    3.7320   -0.4050    0.0000 N   0  0  0  0  0  0  0  0  0  0  0  0
    5.4641    2.5950    0.0000 N   0  0  0  0  0  0  0  0  0  0  0  0
    8.0622    2.0950    0.0000 N   0  0  0  0  0  0  0  0  0  0  0  0
    7.1962   -1.4050    0.0000 C   0  0  0  0  0  0  0  0  0  0  0  0
    8.0622   -1.9050    0.0000 C   0  0  0  0  0  0  0  0  0  0  0  0
    6.3301    0.0950    0.0000 C   0  0  0  0  0  0  0  0  0  0  0  0
    6.3301    1.0950    0.0000 C   0  0  0  0  0  0  0  0  0  0  0  0
    5.4641    1.5950    0.0000 C   0  0  0  0  0  0  0  0  0  0  0  0
    4.5981    0.0950    0.0000 C   0  0  0  0  0  0  0  0  0  0  0  0
    4.5981    1.0950    0.0000 C   0  0  0  0  0  0  0  0  0  0  0  0
    8.0622   -2.9050    0.0000 C   0  0  0  0  0  0  0  0  0  0  0  0
    2.8660    0.0950    0.0000 C   0  0  0  0  0  0  0  0  0  0  0  0
    7.1962    1.5950    0.0000 C   0  0  0  0  0  0  0  0  0  0  0  0
    2.0000   -0.4050    0.0000 C   0  0  0  0  0  0  0  0  0  0  0  0
    6.5856   -1.2973    0.0000 H   0  0  0  0  0  0  0  0  0  0  0  0
    6.9841   -1.9876    0.0000 H   0  0  0  0  0  0  0  0  0  0  0  0
    8.6728   -2.0127    0.0000 H   0  0  0  0  0  0  0  0  0  0  0  0
    8.2742   -1.3224    0.0000 H   0  0  0  0  0  0  0  0  0  0  0  0
    4.0611    1.4050    0.0000 H   0  0  0  0  0  0  0  0  0  0  0  0
    7.4422   -2.9050    0.0000 H   0  0  0  0  0  0  0  0  0  0  0  0
    8.0622   -3.5250    0.0000 H   0  0  0  0  0  0  0  0  0  0  0  0
    8.6822   -2.9050    0.0000 H   0  0  0  0  0  0  0  0  0  0  0  0
    3.7320   -1.0250    0.0000 H   0  0  0  0  0  0  0  0  0  0  0  0
    4.9272    2.9050    0.0000 H   0  0  0  0  0  0  0  0  0  0  0  0
    6.0010    2.9050    0.0000 H   0  0  0  0  0  0  0  0  0  0  0  0
    1.6900    0.1319    0.0000 H   0  0  0  0  0  0  0  0  0  0  0  0
    1.4631   -0.7150    0.0000 H   0  0  0  0  0  0  0  0  0  0  0  0
    2.3100   -0.9419    0.0000 H   0  0  0  0  0  0  0  0  0  0  0  0
  1  7  1  0  0  0  0
  1  9  1  0  0  0  0
  2 15  2  0  0  0  0
  3  9  1  0  0  0  0
  3 12  2  0  0  0  0
  4 12  1  0  0  0  0
  4 15  1  0  0  0  0
  4 26  1  0  0  0  0
  5 11  1  0  0  0  0
  5 27  1  0  0  0  0
  5 28  1  0  0  0  0
  6 16  3  0  0  0  0
  7  8  1  0  0  0  0
  7 18  1  0  0  0  0
  7 19  1  0  0  0  0
  8 14  1  0  0  0  0
  8 20  1  0  0  0  0
  8 21  1  0  0  0  0
  9 10  2  0  0  0  0
 10 11  1  0  0  0  0
 10 16  1  0  0  0  0
 11 13  2  0  0  0  0
 12 13  1  0  0  0  0
 13 22  1  0  0  0  0
 14 23  1  0  0  0  0
 14 24  1  0  0  0  0
 14 25  1  0  0  0  0
 15 17  1  0  0  0  0
 17 29  1  0  0  0  0
 17 30  1  0  0  0  0
 17 31  1  0  0  0  0
M  END
> <PUBCHEM_COMPOUND_CID>
49830860

> <PUBCHEM_COMPOUND_CANONICALIZED>
1

> <PUBCHEM_CACTVS_COMPLEXITY>
312

> <PUBCHEM_CACTVS_HBOND_ACCEPTOR>
5

> <PUBCHEM_CACTVS_HBOND_DONOR>
2

> <PUBCHEM_CACTVS_ROTATABLE_BOND>
4

> <PUBCHEM_CACTVS_SUBSKEYS>
AAADccBzsAAAAAAAAAAAAAAAAAAAAAAAAAAsAAAAAAAAAAABgAAAHgAQAAAADAihmgIz9JLIFAC4BidydACiiCkhIiABmCA0bJiMpmLE+NuOPCju1RvI6C6QEAIMAAAAAAAAAAAAAAAAAAAAAAAAAAAAAA==

> <PUBCHEM_IUPAC_OPENEYE_NAME>
N-(4-amino-5-cyano-6-propoxy-2-pyridyl)acetamide

> <PUBCHEM_IUPAC_CAS_NAME>
N-(4-amino-5-cyano-6-propoxy-2-pyridinyl)acetamide

> <PUBCHEM_IUPAC_NAME_MARKUP>
<I>N</I>-(4-amino-5-cyano-6-propoxypyridin-2-yl)acetamide

> <PUBCHEM_IUPAC_NAME>
N-(4-amino-5-cyano-6-propoxypyridin-2-yl)acetamide

> <PUBCHEM_IUPAC_SYSTEMATIC_NAME>
N-(4-azanyl-5-cyano-6-propoxy-pyridin-2-yl)ethanamide

> <PUBCHEM_IUPAC_TRADITIONAL_NAME>
N-(4-amino-5-cyano-6-propoxy-2-pyridyl)acetamide

> <PUBCHEM_IUPAC_INCHI>
InChI=1S/C11H14N4O2/c1-3-4-17-11-8(6-12)9(13)5-10(15-11)14-7(2)16/h5H,3-4H2,1-2H3,(H3,13,14,15,16)

> <PUBCHEM_IUPAC_INCHIKEY>
KCHJYXDFJPRQHV-UHFFFAOYSA-N

> <PUBCHEM_XLOGP3_AA>
1.1

> <PUBCHEM_EXACT_MASS>
234.11167570

> <PUBCHEM_MOLECULAR_FORMULA>
C11H14N4O2

> <PUBCHEM_MOLECULAR_WEIGHT>
234.25

> <PUBCHEM_SMILES>
CCCOC1=C(C(=CC(=N1)NC(=O)C)N)C#N

> <PUBCHEM_OPENEYE_CAN_SMILES>
CCCOC1=C(C(=CC(=N1)NC(=O)C)N)C#N

> <PUBCHEM_OPENEYE_ISO_SMILES>
CCCOC1=C(C(=CC(=N1)NC(=O)C)N)C#N

> <PUBCHEM_CACTVS_TPSA>
101

> <PUBCHEM_MONOISOTOPIC_WEIGHT>
234.11167570

> <PUBCHEM_TOTAL_CHARGE>
0

> <PUBCHEM_HEAVY_ATOM_COUNT>
17

> <PUBCHEM_ATOM_DEF_STEREO_COUNT>
0

> <PUBCHEM_ATOM_UDEF_STEREO_COUNT>
0

> <PUBCHEM_BOND_DEF_STEREO_COUNT>
0

> <PUBCHEM_BOND_UDEF_STEREO_COUNT>
0

> <PUBCHEM_ISOTOPIC_ATOM_COUNT>
0

> <PUBCHEM_COMPONENT_COUNT>
1

> <PUBCHEM_CACTVS_TAUTO_COUNT>
-1

> <PUBCHEM_COORDINATE_TYPE>
1
5
255

> <PUBCHEM_BONDANNOTATIONS>
10  11  8
11  13  8
12  13  8
3  12  8
3  9  8
9  10  8

$$$$
