136027088
  -OEChem-03202502362D

 43 46  0     0  0  0  0  0  0999 V2000
   12.2225    1.8564    0.0000 Cl  0  0  0  0  0  0  0  0  0  0  0  0
    7.0740   -3.1426    0.0000 O   0  0  0  0  0  0  0  0  0  0  0  0
    2.4608    0.2091    0.0000 O   0  0  0  0  0  0  0  0  0  0  0  0
    6.5740    2.3963    0.0000 N   0  0  0  0  0  0  0  0  0  0  0  0
    8.8341    1.1362    0.0000 N   0  0  0  0  0  0  0  0  0  0  0  0
    7.5740    2.3963    0.0000 N   0  0  0  0  0  0  0  0  0  0  0  0
    7.0740    0.8574    0.0000 C   0  0  0  0  0  0  0  0  0  0  0  0
    6.2650    1.4452    0.0000 C   0  0  0  0  0  0  0  0  0  0  0  0
    7.8830    1.4452    0.0000 C   0  0  0  0  0  0  0  0  0  0  0  0
    7.0740   -0.1426    0.0000 C   0  0  0  0  0  0  0  0  0  0  0  0
    5.3139    1.1362    0.0000 C   0  0  0  0  0  0  0  0  0  0  0  0
    6.2080   -0.6426    0.0000 C   0  0  0  0  0  0  0  0  0  0  0  0
    7.9400   -0.6426    0.0000 C   0  0  0  0  0  0  0  0  0  0  0  0
    4.5708    1.8053    0.0000 C   0  0  0  0  0  0  0  0  0  0  0  0
    5.1060    0.1580    0.0000 C   0  0  0  0  0  0  0  0  0  0  0  0
    9.5772    1.8053    0.0000 C   0  0  0  0  0  0  0  0  0  0  0  0
    6.2080   -1.6426    0.0000 C   0  0  0  0  0  0  0  0  0  0  0  0
    7.9400   -1.6426    0.0000 C   0  0  0  0  0  0  0  0  0  0  0  0
    3.6197    1.4963    0.0000 C   0  0  0  0  0  0  0  0  0  0  0  0
    4.1550   -0.1510    0.0000 C   0  0  0  0  0  0  0  0  0  0  0  0
    7.0740   -2.1426    0.0000 C   0  0  0  0  0  0  0  0  0  0  0  0
    3.4118    0.5181    0.0000 C   0  0  0  0  0  0  0  0  0  0  0  0
   10.5283    1.4963    0.0000 C   0  0  0  0  0  0  0  0  0  0  0  0
    9.3693    2.7835    0.0000 C   0  0  0  0  0  0  0  0  0  0  0  0
   11.2714    2.1654    0.0000 C   0  0  0  0  0  0  0  0  0  0  0  0
   10.1124    3.4526    0.0000 C   0  0  0  0  0  0  0  0  0  0  0  0
   11.0635    3.1436    0.0000 C   0  0  0  0  0  0  0  0  0  0  0  0
    6.2096    2.8978    0.0000 H   0  0  0  0  0  0  0  0  0  0  0  0
    8.9630    0.5297    0.0000 H   0  0  0  0  0  0  0  0  0  0  0  0
    5.6710   -0.3326    0.0000 H   0  0  0  0  0  0  0  0  0  0  0  0
    8.4770   -0.3326    0.0000 H   0  0  0  0  0  0  0  0  0  0  0  0
    4.6997    2.4118    0.0000 H   0  0  0  0  0  0  0  0  0  0  0  0
    5.5668   -0.2568    0.0000 H   0  0  0  0  0  0  0  0  0  0  0  0
    5.6710   -1.9526    0.0000 H   0  0  0  0  0  0  0  0  0  0  0  0
    8.4770   -1.9526    0.0000 H   0  0  0  0  0  0  0  0  0  0  0  0
    3.1590    1.9112    0.0000 H   0  0  0  0  0  0  0  0  0  0  0  0
    4.0260   -0.7574    0.0000 H   0  0  0  0  0  0  0  0  0  0  0  0
   10.6572    0.8898    0.0000 H   0  0  0  0  0  0  0  0  0  0  0  0
    8.7796    2.9750    0.0000 H   0  0  0  0  0  0  0  0  0  0  0  0
    9.9835    4.0590    0.0000 H   0  0  0  0  0  0  0  0  0  0  0  0
   11.5243    3.5584    0.0000 H   0  0  0  0  0  0  0  0  0  0  0  0
    7.6109   -3.4526    0.0000 H   0  0  0  0  0  0  0  0  0  0  0  0
    2.0000    0.6240    0.0000 H   0  0  0  0  0  0  0  0  0  0  0  0
  1 25  1  0  0  0  0
  2 21  1  0  0  0  0
  2 42  1  0  0  0  0
  3 22  1  0  0  0  0
  3 43  1  0  0  0  0
  4  6  1  0  0  0  0
  4  8  1  0  0  0  0
  4 28  1  0  0  0  0
  5  9  1  0  0  0  0
  5 16  1  0  0  0  0
  5 29  1  0  0  0  0
  6  9  2  0  0  0  0
  7  8  2  0  0  0  0
  7  9  1  0  0  0  0
  7 10  1  0  0  0  0
  8 11  1  0  0  0  0
 10 12  2  0  0  0  0
 10 13  1  0  0  0  0
 11 14  2  0  0  0  0
 11 15  1  0  0  0  0
 12 17  1  0  0  0  0
 12 30  1  0  0  0  0
 13 18  2  0  0  0  0
 13 31  1  0  0  0  0
 14 19  1  0  0  0  0
 14 32  1  0  0  0  0
 15 20  2  0  0  0  0
 15 33  1  0  0  0  0
 16 23  2  0  0  0  0
 16 24  1  0  0  0  0
 17 21  2  0  0  0  0
 17 34  1  0  0  0  0
 18 21  1  0  0  0  0
 18 35  1  0  0  0  0
 19 22  2  0  0  0  0
 19 36  1  0  0  0  0
 20 22  1  0  0  0  0
 20 37  1  0  0  0  0
 23 25  1  0  0  0  0
 23 38  1  0  0  0  0
 24 26  2  0  0  0  0
 24 39  1  0  0  0  0
 25 27  2  0  0  0  0
 26 27  1  0  0  0  0
 26 40  1  0  0  0  0
 27 41  1  0  0  0  0
M  END
> <PUBCHEM_COMPOUND_CID>
136027088

> <PUBCHEM_COMPOUND_CANONICALIZED>
1

> <PUBCHEM_CACTVS_COMPLEXITY>
466

> <PUBCHEM_CACTVS_HBOND_ACCEPTOR>
4

> <PUBCHEM_CACTVS_HBOND_DONOR>
4

> <PUBCHEM_CACTVS_ROTATABLE_BOND>
4

> <PUBCHEM_CACTVS_SUBSKEYS>
AAADceB7MAAEAAAAAAAAAAAAAAAAAWAAAAAwYMAAAAAAAAAB1AAAHgIYCAAADA6BniAx9pLjAgCiAyZiYACSBAIhJwAduSAmbpiIJuLD29OE9Ah02BPI2CeQ0PEOoAAAAAIAAABAAAAABAAAAAAAAAAAAA==

> <PUBCHEM_IUPAC_OPENEYE_NAME>
4-[3-(3-chloroanilino)-5-(4-hydroxyphenyl)-1H-pyrazol-4-yl]phenol

> <PUBCHEM_IUPAC_CAS_NAME>
4-[3-(3-chloroanilino)-5-(4-hydroxyphenyl)-1H-pyrazol-4-yl]phenol

> <PUBCHEM_IUPAC_NAME_MARKUP>
4-[3-(3-chloroanilino)-5-(4-hydroxyphenyl)-1<I>H</I>-pyrazol-4-yl]phenol

> <PUBCHEM_IUPAC_NAME>
4-[3-(3-chloroanilino)-5-(4-hydroxyphenyl)-1H-pyrazol-4-yl]phenol

> <PUBCHEM_IUPAC_SYSTEMATIC_NAME>
4-[3-[(3-chlorophenyl)amino]-5-(4-hydroxyphenyl)-1H-pyrazol-4-yl]phenol

> <PUBCHEM_IUPAC_TRADITIONAL_NAME>
4-[3-(3-chloroanilino)-5-(4-hydroxyphenyl)-1H-pyrazol-4-yl]phenol

> <PUBCHEM_IUPAC_INCHI>
InChI=1S/C21H16ClN3O2/c22-15-2-1-3-16(12-15)23-21-19(13-4-8-17(26)9-5-13)20(24-25-21)14-6-10-18(27)11-7-14/h1-12,26-27H,(H2,23,24,25)

> <PUBCHEM_IUPAC_INCHIKEY>
KJVWCDAPVMWKLJ-UHFFFAOYSA-N

> <PUBCHEM_XLOGP3_AA>
5.3

> <PUBCHEM_EXACT_MASS>
377.0931045

> <PUBCHEM_MOLECULAR_FORMULA>
C21H16ClN3O2

> <PUBCHEM_MOLECULAR_WEIGHT>
377.8

> <PUBCHEM_SMILES>
C1=CC(=CC(=C1)Cl)NC2=NNC(=C2C3=CC=C(C=C3)O)C4=CC=C(C=C4)O

> <PUBCHEM_OPENEYE_CAN_SMILES>
C1=CC(=CC(=C1)Cl)NC2=NNC(=C2C3=CC=C(C=C3)O)C4=CC=C(C=C4)O

> <PUBCHEM_OPENEYE_ISO_SMILES>
C1=CC(=CC(=C1)Cl)NC2=NNC(=C2C3=CC=C(C=C3)O)C4=CC=C(C=C4)O

> <PUBCHEM_CACTVS_TPSA>
81.2

> <PUBCHEM_MONOISOTOPIC_WEIGHT>
377.0931045

> <PUBCHEM_TOTAL_CHARGE>
0

> <PUBCHEM_HEAVY_ATOM_COUNT>
27

> <PUBCHEM_ATOM_DEF_STEREO_COUNT>
0

> <PUBCHEM_ATOM_UDEF_STEREO_COUNT>
0

> <PUBCHEM_BOND_DEF_STEREO_COUNT>
0

> <PUBCHEM_BOND_UDEF_STEREO_COUNT>
0

> <PUBCHEM_ISOTOPIC_ATOM_COUNT>
0

> <PUBCHEM_COMPONENT_COUNT>
1

> <PUBCHEM_CACTVS_TAUTO_COUNT>
-1

> <PUBCHEM_COORDINATE_TYPE>
1
5
255

> <PUBCHEM_BONDANNOTATIONS>
10  12  8
10  13  8
11  14  8
11  15  8
12  17  8
13  18  8
14  19  8
15  20  8
16  23  8
16  24  8
17  21  8
18  21  8
19  22  8
20  22  8
23  25  8
24  26  8
25  27  8
26  27  8
4  6  8
4  8  8
6  9  8
7  8  8
7  9  8

$$$$
