15282555
  -OEChem-03202506472D

 80 83  0     0  0  0  0  0  0999 V2000
    7.7331   -2.5000    0.0000 Br  0  0  0  0  0  0  0  0  0  0  0  0
   11.1972    2.5000    0.0000 Br  0  0  0  0  0  0  0  0  0  0  0  0
   14.6613   -9.5000    0.0000 Br  0  0  0  0  0  0  0  0  0  0  0  0
    4.2690    9.5000    0.0000 Br  0  0  0  0  0  0  0  0  0  0  0  0
    7.7331   -0.5000    0.0000 O   0  0  0  0  0  0  0  0  0  0  0  0
   11.1972    0.5000    0.0000 O   0  0  0  0  0  0  0  0  0  0  0  0
   12.9292   -3.5000    0.0000 O   0  0  0  0  0  0  0  0  0  0  0  0
    6.0010    3.5000    0.0000 O   0  0  0  0  0  0  0  0  0  0  0  0
   10.3312   -5.0000    0.0000 O   0  0  0  0  0  0  0  0  0  0  0  0
    8.5991    5.0000    0.0000 O   0  0  0  0  0  0  0  0  0  0  0  0
   16.3933   -8.5000    0.0000 O   0  0  0  0  0  0  0  0  0  0  0  0
    2.5369    8.5000    0.0000 O   0  0  0  0  0  0  0  0  0  0  0  0
   12.0632   -5.0000    0.0000 N   0  0  0  0  0  0  0  0  0  0  0  0
    6.8671    5.0000    0.0000 N   0  0  0  0  0  0  0  0  0  0  0  0
   10.3312   -4.0000    0.0000 N   0  0  0  0  0  0  0  0  0  0  0  0
    8.5991    4.0000    0.0000 N   0  0  0  0  0  0  0  0  0  0  0  0
    9.4651   -0.5000    0.0000 C   0  0  0  0  0  0  0  0  0  0  0  0
    9.4651    0.5000    0.0000 C   0  0  0  0  0  0  0  0  0  0  0  0
   10.3312   -2.0000    0.0000 C   0  0  0  0  0  0  0  0  0  0  0  0
    8.5991    2.0000    0.0000 C   0  0  0  0  0  0  0  0  0  0  0  0
   10.3312   -1.0000    0.0000 C   0  0  0  0  0  0  0  0  0  0  0  0
    8.5991    1.0000    0.0000 C   0  0  0  0  0  0  0  0  0  0  0  0
   11.1972   -2.5000    0.0000 C   0  0  0  0  0  0  0  0  0  0  0  0
    7.7331    2.5000    0.0000 C   0  0  0  0  0  0  0  0  0  0  0  0
    8.5991   -1.0000    0.0000 C   0  0  0  0  0  0  0  0  0  0  0  0
   10.3312    1.0000    0.0000 C   0  0  0  0  0  0  0  0  0  0  0  0
    9.4651   -2.5000    0.0000 C   0  0  0  0  0  0  0  0  0  0  0  0
    9.4651    2.5000    0.0000 C   0  0  0  0  0  0  0  0  0  0  0  0
    8.5991   -2.0000    0.0000 C   0  0  0  0  0  0  0  0  0  0  0  0
   10.3312    2.0000    0.0000 C   0  0  0  0  0  0  0  0  0  0  0  0
   11.1972   -3.5000    0.0000 C   0  0  0  0  0  0  0  0  0  0  0  0
    7.7331    3.5000    0.0000 C   0  0  0  0  0  0  0  0  0  0  0  0
   12.9292   -6.5000    0.0000 C   0  0  0  0  0  0  0  0  0  0  0  0
    6.0010    6.5000    0.0000 C   0  0  0  0  0  0  0  0  0  0  0  0
   12.9292   -5.5000    0.0000 C   0  0  0  0  0  0  0  0  0  0  0  0
    6.0010    5.5000    0.0000 C   0  0  0  0  0  0  0  0  0  0  0  0
   13.7953   -7.0000    0.0000 C   0  0  0  0  0  0  0  0  0  0  0  0
    5.1350    7.0000    0.0000 C   0  0  0  0  0  0  0  0  0  0  0  0
   12.0632   -4.0000    0.0000 C   0  0  0  0  0  0  0  0  0  0  0  0
    6.8671    4.0000    0.0000 C   0  0  0  0  0  0  0  0  0  0  0  0
   13.7953   -8.0000    0.0000 C   0  0  0  0  0  0  0  0  0  0  0  0
    5.1350    8.0000    0.0000 C   0  0  0  0  0  0  0  0  0  0  0  0
   14.6613   -6.5000    0.0000 C   0  0  0  0  0  0  0  0  0  0  0  0
    4.2690    6.5000    0.0000 C   0  0  0  0  0  0  0  0  0  0  0  0
   14.6613   -8.5000    0.0000 C   0  0  0  0  0  0  0  0  0  0  0  0
    4.2690    8.5000    0.0000 C   0  0  0  0  0  0  0  0  0  0  0  0
   15.5273   -7.0000    0.0000 C   0  0  0  0  0  0  0  0  0  0  0  0
    3.4030    7.0000    0.0000 C   0  0  0  0  0  0  0  0  0  0  0  0
   15.5273   -8.0000    0.0000 C   0  0  0  0  0  0  0  0  0  0  0  0
    3.4030    8.0000    0.0000 C   0  0  0  0  0  0  0  0  0  0  0  0
   10.8681   -0.6900    0.0000 H   0  0  0  0  0  0  0  0  0  0  0  0
    8.0622    0.6900    0.0000 H   0  0  0  0  0  0  0  0  0  0  0  0
   11.8078   -2.6077    0.0000 H   0  0  0  0  0  0  0  0  0  0  0  0
   11.4092   -1.9174    0.0000 H   0  0  0  0  0  0  0  0  0  0  0  0
    7.1225    2.6077    0.0000 H   0  0  0  0  0  0  0  0  0  0  0  0
    7.5210    1.9174    0.0000 H   0  0  0  0  0  0  0  0  0  0  0  0
    9.4651   -3.1200    0.0000 H   0  0  0  0  0  0  0  0  0  0  0  0
    9.4651    3.1200    0.0000 H   0  0  0  0  0  0  0  0  0  0  0  0
   12.3187   -6.3923    0.0000 H   0  0  0  0  0  0  0  0  0  0  0  0
   12.7172   -7.0826    0.0000 H   0  0  0  0  0  0  0  0  0  0  0  0
    6.6116    6.3923    0.0000 H   0  0  0  0  0  0  0  0  0  0  0  0
    6.2131    7.0826    0.0000 H   0  0  0  0  0  0  0  0  0  0  0  0
   13.5398   -5.6077    0.0000 H   0  0  0  0  0  0  0  0  0  0  0  0
   13.1413   -4.9174    0.0000 H   0  0  0  0  0  0  0  0  0  0  0  0
    5.3905    5.6077    0.0000 H   0  0  0  0  0  0  0  0  0  0  0  0
    5.7890    4.9174    0.0000 H   0  0  0  0  0  0  0  0  0  0  0  0
   11.5263   -5.3100    0.0000 H   0  0  0  0  0  0  0  0  0  0  0  0
    7.4040    5.3100    0.0000 H   0  0  0  0  0  0  0  0  0  0  0  0
   13.2583   -8.3100    0.0000 H   0  0  0  0  0  0  0  0  0  0  0  0
    5.6720    8.3100    0.0000 H   0  0  0  0  0  0  0  0  0  0  0  0
   14.6613   -5.8800    0.0000 H   0  0  0  0  0  0  0  0  0  0  0  0
    4.2690    5.8800    0.0000 H   0  0  0  0  0  0  0  0  0  0  0  0
    7.1962   -0.8100    0.0000 H   0  0  0  0  0  0  0  0  0  0  0  0
   11.7341    0.8100    0.0000 H   0  0  0  0  0  0  0  0  0  0  0  0
   16.0643   -6.6900    0.0000 H   0  0  0  0  0  0  0  0  0  0  0  0
    2.8660    6.6900    0.0000 H   0  0  0  0  0  0  0  0  0  0  0  0
    9.7942   -5.3100    0.0000 H   0  0  0  0  0  0  0  0  0  0  0  0
    9.1360    5.3100    0.0000 H   0  0  0  0  0  0  0  0  0  0  0  0
   16.9303   -8.1900    0.0000 H   0  0  0  0  0  0  0  0  0  0  0  0
    2.0000    8.1900    0.0000 H   0  0  0  0  0  0  0  0  0  0  0  0
  1 29  1  0  0  0  0
  2 30  1  0  0  0  0
  3 45  1  0  0  0  0
  4 46  1  0  0  0  0
  5 25  1  0  0  0  0
  5 73  1  0  0  0  0
  6 26  1  0  0  0  0
  6 74  1  0  0  0  0
  7 39  2  0  0  0  0
  8 40  2  0  0  0  0
  9 15  1  0  0  0  0
  9 77  1  0  0  0  0
 10 16  1  0  0  0  0
 10 78  1  0  0  0  0
 11 49  1  0  0  0  0
 11 79  1  0  0  0  0
 12 50  1  0  0  0  0
 12 80  1  0  0  0  0
 13 35  1  0  0  0  0
 13 39  1  0  0  0  0
 13 67  1  0  0  0  0
 14 36  1  0  0  0  0
 14 40  1  0  0  0  0
 14 68  1  0  0  0  0
 15 31  2  0  0  0  0
 16 32  2  0  0  0  0
 17 18  1  0  0  0  0
 17 21  1  0  0  0  0
 17 25  2  0  0  0  0
 18 22  1  0  0  0  0
 18 26  2  0  0  0  0
 19 21  2  0  0  0  0
 19 23  1  0  0  0  0
 19 27  1  0  0  0  0
 20 22  2  0  0  0  0
 20 24  1  0  0  0  0
 20 28  1  0  0  0  0
 21 51  1  0  0  0  0
 22 52  1  0  0  0  0
 23 31  1  0  0  0  0
 23 53  1  0  0  0  0
 23 54  1  0  0  0  0
 24 32  1  0  0  0  0
 24 55  1  0  0  0  0
 24 56  1  0  0  0  0
 25 29  1  0  0  0  0
 26 30  1  0  0  0  0
 27 29  2  0  0  0  0
 27 57  1  0  0  0  0
 28 30  2  0  0  0  0
 28 58  1  0  0  0  0
 31 39  1  0  0  0  0
 32 40  1  0  0  0  0
 33 35  1  0  0  0  0
 33 37  1  0  0  0  0
 33 59  1  0  0  0  0
 33 60  1  0  0  0  0
 34 36  1  0  0  0  0
 34 38  1  0  0  0  0
 34 61  1  0  0  0  0
 34 62  1  0  0  0  0
 35 63  1  0  0  0  0
 35 64  1  0  0  0  0
 36 65  1  0  0  0  0
 36 66  1  0  0  0  0
 37 41  2  0  0  0  0
 37 43  1  0  0  0  0
 38 42  2  0  0  0  0
 38 44  1  0  0  0  0
 41 45  1  0  0  0  0
 41 69  1  0  0  0  0
 42 46  1  0  0  0  0
 42 70  1  0  0  0  0
 43 47  2  0  0  0  0
 43 71  1  0  0  0  0
 44 48  2  0  0  0  0
 44 72  1  0  0  0  0
 45 49  2  0  0  0  0
 46 50  2  0  0  0  0
 47 49  1  0  0  0  0
 47 75  1  0  0  0  0
 48 50  1  0  0  0  0
 48 76  1  0  0  0  0
M  END
> <PUBCHEM_COMPOUND_CID>
15282555

> <PUBCHEM_COMPOUND_CANONICALIZED>
1

> <PUBCHEM_CACTVS_COMPLEXITY>
1100

> <PUBCHEM_CACTVS_HBOND_ACCEPTOR>
10

> <PUBCHEM_CACTVS_HBOND_DONOR>
8

> <PUBCHEM_CACTVS_ROTATABLE_BOND>
13

> <PUBCHEM_CACTVS_SUBSKEYS>
AAADceB/vAAAHAAAAAAAAAAAAAAAAAAAAAAwYMGAAAAAAAABVAAAHgBUCAABrAzBmAQwBoLQAgCoAyFyEAACAAAgIAQIiIE+CKgIJjKCkROEcAAk1hGImhfYyPCOoAACEAAIBABAAAQgABAIAAAAAAAAAA==

> <PUBCHEM_IUPAC_OPENEYE_NAME>
(2Z)-3-[3-bromo-5-[3-bromo-5-[(2Z)-3-[2-(3-bromo-4-hydroxy-phenyl)ethylamino]-2-hydroxyimino-3-oxo-propyl]-2-hydroxy-phenyl]-4-hydroxy-phenyl]-N-[2-(3-bromo-4-hydroxy-phenyl)ethyl]-2-hydroxyimino-propanamide

> <PUBCHEM_IUPAC_CAS_NAME>
(2Z)-3-[3-bromo-5-[3-bromo-5-[(2Z)-3-[2-(3-bromo-4-hydroxyphenyl)ethylamino]-2-hydroxyimino-3-oxopropyl]-2-hydroxyphenyl]-4-hydroxyphenyl]-N-[2-(3-bromo-4-hydroxyphenyl)ethyl]-2-hydroxyiminopropanamide

> <PUBCHEM_IUPAC_NAME_MARKUP>
(2<I>Z</I>)-3-[3-bromo-5-[3-bromo-5-[(2<I>Z</I>)-3-[2-(3-bromo-4-hydroxyphenyl)ethylamino]-2-hydroxyimino-3-oxopropyl]-2-hydroxyphenyl]-4-hydroxyphenyl]-<I>N</I>-[2-(3-bromo-4-hydroxyphenyl)ethyl]-2-hydroxyiminopropanamide

> <PUBCHEM_IUPAC_NAME>
(2Z)-3-[3-bromo-5-[3-bromo-5-[(2Z)-3-[2-(3-bromo-4-hydroxyphenyl)ethylamino]-2-hydroxyimino-3-oxopropyl]-2-hydroxyphenyl]-4-hydroxyphenyl]-N-[2-(3-bromo-4-hydroxyphenyl)ethyl]-2-hydroxyiminopropanamide

> <PUBCHEM_IUPAC_SYSTEMATIC_NAME>
(2Z)-3-[3-bromanyl-5-[3-bromanyl-5-[(2Z)-3-[2-(3-bromanyl-4-oxidanyl-phenyl)ethylamino]-2-hydroxyimino-3-oxidanylidene-propyl]-2-oxidanyl-phenyl]-4-oxidanyl-phenyl]-N-[2-(3-bromanyl-4-oxidanyl-phenyl)ethyl]-2-hydroxyimino-propanamide

> <PUBCHEM_IUPAC_TRADITIONAL_NAME>
(2Z)-3-[3-bromo-5-[3-bromo-5-[(2Z)-3-[2-(3-bromo-4-hydroxy-phenyl)ethylamino]-2-hydroximino-3-keto-propyl]-2-hydroxy-phenyl]-4-hydroxy-phenyl]-N-[2-(3-bromo-4-hydroxy-phenyl)ethyl]-2-hydroximino-propionamide

> <PUBCHEM_IUPAC_INCHI>
InChI=1S/C34H30Br4N4O8/c35-23-11-17(1-3-29(23)43)5-7-39-33(47)27(41-49)15-19-9-21(31(45)25(37)13-19)22-10-20(14-26(38)32(22)46)16-28(42-50)34(48)40-8-6-18-2-4-30(44)24(36)12-18/h1-4,9-14,43-46,49-50H,5-8,15-16H2,(H,39,47)(H,40,48)/b41-27-,42-28-

> <PUBCHEM_IUPAC_INCHIKEY>
XEGSWNKCRGYRFG-HEPSPIFKSA-N

> <PUBCHEM_XLOGP3_AA>
8.6

> <PUBCHEM_EXACT_MASS>
941.87562

> <PUBCHEM_MOLECULAR_FORMULA>
C34H30Br4N4O8

> <PUBCHEM_MOLECULAR_WEIGHT>
942.2

> <PUBCHEM_SMILES>
C1=CC(=C(C=C1CCNC(=O)/C(=N\O)/CC2=CC(=C(C(=C2)Br)O)C3=C(C(=CC(=C3)C/C(=N/O)/C(=O)NCCC4=CC(=C(C=C4)O)Br)Br)O)Br)O

> <PUBCHEM_OPENEYE_CAN_SMILES>
C1=CC(=C(C=C1CCNC(=O)C(=NO)CC2=CC(=C(C(=C2)Br)O)C3=C(C(=CC(=C3)CC(=NO)C(=O)NCCC4=CC(=C(C=C4)O)Br)Br)O)Br)O

> <PUBCHEM_OPENEYE_ISO_SMILES>
C1=CC(=C(C=C1CCNC(=O)/C(=N\O)/CC2=CC(=C(C(=C2)Br)O)C3=C(C(=CC(=C3)C/C(=N/O)/C(=O)NCCC4=CC(=C(C=C4)O)Br)Br)O)Br)O

> <PUBCHEM_CACTVS_TPSA>
204

> <PUBCHEM_MONOISOTOPIC_WEIGHT>
937.87971

> <PUBCHEM_TOTAL_CHARGE>
0

> <PUBCHEM_HEAVY_ATOM_COUNT>
50

> <PUBCHEM_ATOM_DEF_STEREO_COUNT>
0

> <PUBCHEM_ATOM_UDEF_STEREO_COUNT>
0

> <PUBCHEM_BOND_DEF_STEREO_COUNT>
2

> <PUBCHEM_BOND_UDEF_STEREO_COUNT>
0

> <PUBCHEM_ISOTOPIC_ATOM_COUNT>
0

> <PUBCHEM_COMPONENT_COUNT>
1

> <PUBCHEM_CACTVS_TAUTO_COUNT>
-1

> <PUBCHEM_COORDINATE_TYPE>
1
5
255

> <PUBCHEM_BONDANNOTATIONS>
17  21  8
17  25  8
18  22  8
18  26  8
19  21  8
19  27  8
20  22  8
20  28  8
25  29  8
26  30  8
27  29  8
28  30  8
37  41  8
37  43  8
38  42  8
38  44  8
41  45  8
42  46  8
43  47  8
44  48  8
45  49  8
46  50  8
47  49  8
48  50  8

$$$$
