49830908
  -OEChem-03202504282D

 64 68  0     0  0  0  0  0  0999 V2000
    5.4641    7.5194    0.0000 F   0  0  0  0  0  0  0  0  0  0  0  0
    6.3301   -2.9806    0.0000 O   0  0  0  0  0  0  0  0  0  0  0  0
    4.5981    4.0194    0.0000 O   0  0  0  0  0  0  0  0  0  0  0  0
    8.1424   -1.7853    0.0000 N   0  0  0  0  0  0  0  0  0  0  0  0
    4.5981   -5.9806    0.0000 N   0  0  0  0  0  0  0  0  0  0  0  0
    8.7260   -0.9806    0.0000 N   0  0  0  0  0  0  0  0  0  0  0  0
    8.4530    0.7747    0.0000 N   0  0  0  0  0  0  0  0  0  0  0  0
    6.3301    4.0194    0.0000 N   0  0  0  0  0  0  0  0  0  0  0  0
    5.4641    5.5194    0.0000 N   0  0  0  0  0  0  0  0  0  0  0  0
    7.1962   -0.4806    0.0000 C   0  0  0  0  0  0  0  0  0  0  0  0
    7.1962   -1.4806    0.0000 C   0  0  0  0  0  0  0  0  0  0  0  0
    6.3301    0.0194    0.0000 C   0  0  0  0  0  0  0  0  0  0  0  0
    6.3301   -1.9806    0.0000 C   0  0  0  0  0  0  0  0  0  0  0  0
    5.4641   -4.4806    0.0000 C   0  0  0  0  0  0  0  0  0  0  0  0
    4.5981   -4.9806    0.0000 C   0  0  0  0  0  0  0  0  0  0  0  0
    5.4641   -3.4806    0.0000 C   0  0  0  0  0  0  0  0  0  0  0  0
    6.3301    1.0194    0.0000 C   0  0  0  0  0  0  0  0  0  0  0  0
    5.4641   -0.4806    0.0000 C   0  0  0  0  0  0  0  0  0  0  0  0
    8.1424   -0.1758    0.0000 C   0  0  0  0  0  0  0  0  0  0  0  0
    5.4641   -1.4806    0.0000 C   0  0  0  0  0  0  0  0  0  0  0  0
    5.4641    1.5194    0.0000 C   0  0  0  0  0  0  0  0  0  0  0  0
    7.1962    1.5194    0.0000 C   0  0  0  0  0  0  0  0  0  0  0  0
    6.3301    3.0194    0.0000 C   0  0  0  0  0  0  0  0  0  0  0  0
    3.7891   -6.5684    0.0000 C   0  0  0  0  0  0  0  0  0  0  0  0
    5.4071   -6.5684    0.0000 C   0  0  0  0  0  0  0  0  0  0  0  0
    5.4641    2.5194    0.0000 C   0  0  0  0  0  0  0  0  0  0  0  0
    7.1962    2.5194    0.0000 C   0  0  0  0  0  0  0  0  0  0  0  0
    4.0981   -7.5194    0.0000 C   0  0  0  0  0  0  0  0  0  0  0  0
    5.0981   -7.5194    0.0000 C   0  0  0  0  0  0  0  0  0  0  0  0
    5.4641    4.5194    0.0000 C   0  0  0  0  0  0  0  0  0  0  0  0
    4.5981    6.0194    0.0000 C   0  0  0  0  0  0  0  0  0  0  0  0
    3.7320    5.5194    0.0000 C   0  0  0  0  0  0  0  0  0  0  0  0
    2.8660    6.0194    0.0000 C   0  0  0  0  0  0  0  0  0  0  0  0
    4.5981    7.0194    0.0000 C   0  0  0  0  0  0  0  0  0  0  0  0
    2.8660    7.0194    0.0000 C   0  0  0  0  0  0  0  0  0  0  0  0
    3.7320    7.5194    0.0000 C   0  0  0  0  0  0  0  0  0  0  0  0
    2.0000    5.5194    0.0000 C   0  0  0  0  0  0  0  0  0  0  0  0
    5.6762   -5.0632    0.0000 H   0  0  0  0  0  0  0  0  0  0  0  0
    6.0747   -4.3729    0.0000 H   0  0  0  0  0  0  0  0  0  0  0  0
    4.3860   -4.3980    0.0000 H   0  0  0  0  0  0  0  0  0  0  0  0
    3.9875   -5.0882    0.0000 H   0  0  0  0  0  0  0  0  0  0  0  0
    5.2520   -2.8980    0.0000 H   0  0  0  0  0  0  0  0  0  0  0  0
    4.8535   -3.5882    0.0000 H   0  0  0  0  0  0  0  0  0  0  0  0
    4.9272   -0.1706    0.0000 H   0  0  0  0  0  0  0  0  0  0  0  0
    4.9272   -1.7906    0.0000 H   0  0  0  0  0  0  0  0  0  0  0  0
    8.3350   -2.3746    0.0000 H   0  0  0  0  0  0  0  0  0  0  0  0
    4.9272    1.2094    0.0000 H   0  0  0  0  0  0  0  0  0  0  0  0
    7.7331    1.2094    0.0000 H   0  0  0  0  0  0  0  0  0  0  0  0
    3.1994   -6.3768    0.0000 H   0  0  0  0  0  0  0  0  0  0  0  0
    5.9967   -6.3768    0.0000 H   0  0  0  0  0  0  0  0  0  0  0  0
    4.9272    2.8294    0.0000 H   0  0  0  0  0  0  0  0  0  0  0  0
    7.7331    2.8294    0.0000 H   0  0  0  0  0  0  0  0  0  0  0  0
    9.0597    0.9025    0.0000 H   0  0  0  0  0  0  0  0  0  0  0  0
    8.0390    1.2361    0.0000 H   0  0  0  0  0  0  0  0  0  0  0  0
    3.7336   -8.0210    0.0000 H   0  0  0  0  0  0  0  0  0  0  0  0
    5.4625   -8.0210    0.0000 H   0  0  0  0  0  0  0  0  0  0  0  0
    6.8671    4.3294    0.0000 H   0  0  0  0  0  0  0  0  0  0  0  0
    6.0010    5.8294    0.0000 H   0  0  0  0  0  0  0  0  0  0  0  0
    3.7320    4.8994    0.0000 H   0  0  0  0  0  0  0  0  0  0  0  0
    2.3291    7.3294    0.0000 H   0  0  0  0  0  0  0  0  0  0  0  0
    3.7320    8.1394    0.0000 H   0  0  0  0  0  0  0  0  0  0  0  0
    1.6900    6.0564    0.0000 H   0  0  0  0  0  0  0  0  0  0  0  0
    1.4631    5.2094    0.0000 H   0  0  0  0  0  0  0  0  0  0  0  0
    2.3100    4.9825    0.0000 H   0  0  0  0  0  0  0  0  0  0  0  0
  1 34  1  0  0  0  0
  2 13  1  0  0  0  0
  2 16  1  0  0  0  0
  3 30  2  0  0  0  0
  4  6  1  0  0  0  0
  4 11  1  0  0  0  0
  4 46  1  0  0  0  0
  5 15  1  0  0  0  0
  5 24  1  0  0  0  0
  5 25  1  0  0  0  0
  6 19  2  0  0  0  0
  7 19  1  0  0  0  0
  7 53  1  0  0  0  0
  7 54  1  0  0  0  0
  8 23  1  0  0  0  0
  8 30  1  0  0  0  0
  8 57  1  0  0  0  0
  9 30  1  0  0  0  0
  9 31  1  0  0  0  0
  9 58  1  0  0  0  0
 10 11  1  0  0  0  0
 10 12  2  0  0  0  0
 10 19  1  0  0  0  0
 11 13  2  0  0  0  0
 12 17  1  0  0  0  0
 12 18  1  0  0  0  0
 13 20  1  0  0  0  0
 14 15  1  0  0  0  0
 14 16  1  0  0  0  0
 14 38  1  0  0  0  0
 14 39  1  0  0  0  0
 15 40  1  0  0  0  0
 15 41  1  0  0  0  0
 16 42  1  0  0  0  0
 16 43  1  0  0  0  0
 17 21  2  0  0  0  0
 17 22  1  0  0  0  0
 18 20  2  0  0  0  0
 18 44  1  0  0  0  0
 20 45  1  0  0  0  0
 21 26  1  0  0  0  0
 21 47  1  0  0  0  0
 22 27  2  0  0  0  0
 22 48  1  0  0  0  0
 23 26  2  0  0  0  0
 23 27  1  0  0  0  0
 24 28  2  0  0  0  0
 24 49  1  0  0  0  0
 25 29  2  0  0  0  0
 25 50  1  0  0  0  0
 26 51  1  0  0  0  0
 27 52  1  0  0  0  0
 28 29  1  0  0  0  0
 28 55  1  0  0  0  0
 29 56  1  0  0  0  0
 31 32  1  0  0  0  0
 31 34  2  0  0  0  0
 32 33  2  0  0  0  0
 32 59  1  0  0  0  0
 33 35  1  0  0  0  0
 33 37  1  0  0  0  0
 34 36  1  0  0  0  0
 35 36  2  0  0  0  0
 35 60  1  0  0  0  0
 36 61  1  0  0  0  0
 37 62  1  0  0  0  0
 37 63  1  0  0  0  0
 37 64  1  0  0  0  0
M  END
> <PUBCHEM_COMPOUND_CID>
49830908

> <PUBCHEM_COMPOUND_CANONICALIZED>
1

> <PUBCHEM_CACTVS_COMPLEXITY>
731

> <PUBCHEM_CACTVS_HBOND_ACCEPTOR>
5

> <PUBCHEM_CACTVS_HBOND_DONOR>
4

> <PUBCHEM_CACTVS_ROTATABLE_BOND>
8

> <PUBCHEM_CACTVS_SUBSKEYS>
AAADceB7sQAAAAAAAAAAAAAAAAAAAWLAAAAwYMAAAAAAAFgB/AAAHwAYAAAADAzhng4/9vPvFACqAzZndASSjCIxYiAc+SA/bJiOJuLE8duHvCj+3BPI6CewwPAOqAABQAASEABQAAKAACQgAAAAAAAAAA==

> <PUBCHEM_IUPAC_OPENEYE_NAME>
1-[4-[3-amino-7-(3-pyrrol-1-ylpropoxy)-1H-indazol-4-yl]phenyl]-3-(2-fluoro-5-methyl-phenyl)urea

> <PUBCHEM_IUPAC_CAS_NAME>
1-[4-[3-amino-7-[3-(1-pyrrolyl)propoxy]-1H-indazol-4-yl]phenyl]-3-(2-fluoro-5-methylphenyl)urea

> <PUBCHEM_IUPAC_NAME_MARKUP>
1-[4-[3-amino-7-(3-pyrrol-1-ylpropoxy)-1<I>H</I>-indazol-4-yl]phenyl]-3-(2-fluoro-5-methylphenyl)urea

> <PUBCHEM_IUPAC_NAME>
1-[4-[3-amino-7-(3-pyrrol-1-ylpropoxy)-1H-indazol-4-yl]phenyl]-3-(2-fluoro-5-methylphenyl)urea

> <PUBCHEM_IUPAC_SYSTEMATIC_NAME>
1-[4-[3-azanyl-7-(3-pyrrol-1-ylpropoxy)-1H-indazol-4-yl]phenyl]-3-(2-fluoranyl-5-methyl-phenyl)urea

> <PUBCHEM_IUPAC_TRADITIONAL_NAME>
1-[4-[3-amino-7-(3-pyrrol-1-ylpropoxy)-1H-indazol-4-yl]phenyl]-3-(2-fluoro-5-methyl-phenyl)urea

> <PUBCHEM_IUPAC_INCHI>
InChI=1S/C28H27FN6O2/c1-18-5-11-22(29)23(17-18)32-28(36)31-20-8-6-19(7-9-20)21-10-12-24(26-25(21)27(30)34-33-26)37-16-4-15-35-13-2-3-14-35/h2-3,5-14,17H,4,15-16H2,1H3,(H3,30,33,34)(H2,31,32,36)

> <PUBCHEM_IUPAC_INCHIKEY>
AYXVSCVVQIADBF-UHFFFAOYSA-N

> <PUBCHEM_XLOGP3_AA>
4.6

> <PUBCHEM_EXACT_MASS>
498.21795229

> <PUBCHEM_MOLECULAR_FORMULA>
C28H27FN6O2

> <PUBCHEM_MOLECULAR_WEIGHT>
498.6

> <PUBCHEM_SMILES>
CC1=CC(=C(C=C1)F)NC(=O)NC2=CC=C(C=C2)C3=C4C(=C(C=C3)OCCCN5C=CC=C5)NN=C4N

> <PUBCHEM_OPENEYE_CAN_SMILES>
CC1=CC(=C(C=C1)F)NC(=O)NC2=CC=C(C=C2)C3=C4C(=C(C=C3)OCCCN5C=CC=C5)NN=C4N

> <PUBCHEM_OPENEYE_ISO_SMILES>
CC1=CC(=C(C=C1)F)NC(=O)NC2=CC=C(C=C2)C3=C4C(=C(C=C3)OCCCN5C=CC=C5)NN=C4N

> <PUBCHEM_CACTVS_TPSA>
110

> <PUBCHEM_MONOISOTOPIC_WEIGHT>
498.21795229

> <PUBCHEM_TOTAL_CHARGE>
0

> <PUBCHEM_HEAVY_ATOM_COUNT>
37

> <PUBCHEM_ATOM_DEF_STEREO_COUNT>
0

> <PUBCHEM_ATOM_UDEF_STEREO_COUNT>
0

> <PUBCHEM_BOND_DEF_STEREO_COUNT>
0

> <PUBCHEM_BOND_UDEF_STEREO_COUNT>
0

> <PUBCHEM_ISOTOPIC_ATOM_COUNT>
0

> <PUBCHEM_COMPONENT_COUNT>
1

> <PUBCHEM_CACTVS_TAUTO_COUNT>
-1

> <PUBCHEM_COORDINATE_TYPE>
1
5
255

> <PUBCHEM_BONDANNOTATIONS>
10  11  8
10  12  8
10  19  8
11  13  8
12  18  8
13  20  8
17  21  8
17  22  8
18  20  8
21  26  8
22  27  8
23  26  8
23  27  8
24  28  8
25  29  8
28  29  8
31  32  8
31  34  8
32  33  8
33  35  8
34  36  8
35  36  8
4  11  8
4  6  8
5  24  8
5  25  8
6  19  8

$$$$
