21362748
  -OEChem-03202507182D

 39 42  0     0  0  0  0  0  0999 V2000
    7.3991   -3.8582    0.0000 Cl  0  0  0  0  0  0  0  0  0  0  0  0
    8.3031   -0.9147    0.0000 O   0  0  0  0  0  0  0  0  0  0  0  0
    8.8175    3.6389    0.0000 O   0  0  0  0  0  0  0  0  0  0  0  0
    4.5274   -0.9976    0.0000 N   0  0  0  0  0  0  0  0  0  0  0  0
    6.6498   -0.3985    0.0000 N   0  0  0  0  0  0  0  0  0  0  0  0
    2.0000   -2.1218    0.0000 N   0  0  0  0  0  0  0  0  0  0  0  0
    5.3364   -1.5854    0.0000 C   0  0  0  0  0  0  0  0  0  0  0  0
    5.0274   -2.5364    0.0000 C   0  0  0  0  0  0  0  0  0  0  0  0
    4.0274   -2.5364    0.0000 C   0  0  0  0  0  0  0  0  0  0  0  0
    3.7183   -1.5854    0.0000 C   0  0  0  0  0  0  0  0  0  0  0  0
    6.3518   -1.3531    0.0000 C   0  0  0  0  0  0  0  0  0  0  0  0
    5.7123   -3.3211    0.0000 C   0  0  0  0  0  0  0  0  0  0  0  0
    7.0547   -2.1218    0.0000 C   0  0  0  0  0  0  0  0  0  0  0  0
    3.3424   -3.3211    0.0000 C   0  0  0  0  0  0  0  0  0  0  0  0
    6.7328   -3.1124    0.0000 C   0  0  0  0  0  0  0  0  0  0  0  0
    2.7029   -1.3531    0.0000 C   0  0  0  0  0  0  0  0  0  0  0  0
    2.3219   -3.1124    0.0000 C   0  0  0  0  0  0  0  0  0  0  0  0
    7.6255   -0.1793    0.0000 C   0  0  0  0  0  0  0  0  0  0  0  0
    7.9235    0.7752    0.0000 C   0  0  0  0  0  0  0  0  0  0  0  0
    8.8991    0.9945    0.0000 C   0  0  0  0  0  0  0  0  0  0  0  0
    7.2458    1.5106    0.0000 C   0  0  0  0  0  0  0  0  0  0  0  0
    9.1971    1.9490    0.0000 C   0  0  0  0  0  0  0  0  0  0  0  0
    7.5438    2.4652    0.0000 C   0  0  0  0  0  0  0  0  0  0  0  0
    8.5195    2.6844    0.0000 C   0  0  0  0  0  0  0  0  0  0  0  0
    9.7931    3.8582    0.0000 C   0  0  0  0  0  0  0  0  0  0  0  0
    4.5274   -0.3776    0.0000 H   0  0  0  0  0  0  0  0  0  0  0  0
    5.5139   -3.9085    0.0000 H   0  0  0  0  0  0  0  0  0  0  0  0
    7.6607   -1.9905    0.0000 H   0  0  0  0  0  0  0  0  0  0  0  0
    3.5408   -3.9085    0.0000 H   0  0  0  0  0  0  0  0  0  0  0  0
    6.2296    0.0574    0.0000 H   0  0  0  0  0  0  0  0  0  0  0  0
    2.5182   -0.7613    0.0000 H   0  0  0  0  0  0  0  0  0  0  0  0
    1.9088   -3.5748    0.0000 H   0  0  0  0  0  0  0  0  0  0  0  0
    9.3193    0.5385    0.0000 H   0  0  0  0  0  0  0  0  0  0  0  0
    6.6409    1.3747    0.0000 H   0  0  0  0  0  0  0  0  0  0  0  0
    9.8021    2.0849    0.0000 H   0  0  0  0  0  0  0  0  0  0  0  0
    7.1236    2.9211    0.0000 H   0  0  0  0  0  0  0  0  0  0  0  0
    9.9290    3.2532    0.0000 H   0  0  0  0  0  0  0  0  0  0  0  0
   10.3981    3.9941    0.0000 H   0  0  0  0  0  0  0  0  0  0  0  0
    9.6572    4.4631    0.0000 H   0  0  0  0  0  0  0  0  0  0  0  0
  1 15  1  0  0  0  0
  2 18  2  0  0  0  0
  3 24  1  0  0  0  0
  3 25  1  0  0  0  0
  4  7  1  0  0  0  0
  4 10  1  0  0  0  0
  4 26  1  0  0  0  0
  5 11  1  0  0  0  0
  5 18  1  0  0  0  0
  5 30  1  0  0  0  0
  6 16  2  0  0  0  0
  6 17  1  0  0  0  0
  7  8  2  0  0  0  0
  7 11  1  0  0  0  0
  8  9  1  0  0  0  0
  8 12  1  0  0  0  0
  9 10  2  0  0  0  0
  9 14  1  0  0  0  0
 10 16  1  0  0  0  0
 11 13  2  0  0  0  0
 12 15  2  0  0  0  0
 12 27  1  0  0  0  0
 13 15  1  0  0  0  0
 13 28  1  0  0  0  0
 14 17  2  0  0  0  0
 14 29  1  0  0  0  0
 16 31  1  0  0  0  0
 17 32  1  0  0  0  0
 18 19  1  0  0  0  0
 19 20  2  0  0  0  0
 19 21  1  0  0  0  0
 20 22  1  0  0  0  0
 20 33  1  0  0  0  0
 21 23  2  0  0  0  0
 21 34  1  0  0  0  0
 22 24  2  0  0  0  0
 22 35  1  0  0  0  0
 23 24  1  0  0  0  0
 23 36  1  0  0  0  0
 25 37  1  0  0  0  0
 25 38  1  0  0  0  0
 25 39  1  0  0  0  0
M  END
> <PUBCHEM_COMPOUND_CID>
21362748

> <PUBCHEM_COMPOUND_CANONICALIZED>
1

> <PUBCHEM_CACTVS_COMPLEXITY>
483

> <PUBCHEM_CACTVS_HBOND_ACCEPTOR>
3

> <PUBCHEM_CACTVS_HBOND_DONOR>
2

> <PUBCHEM_CACTVS_ROTATABLE_BOND>
3

> <PUBCHEM_CACTVS_SUBSKEYS>
AAADccB7MAAEAAAAAAAAAAAAAAAAAWAAAAA8YIAAAAAAAFgB/gAAHgIQAAAADA7BniY+xvLJlACoAzV3VACCiCQ1NyAI2SE+ftgMZvLFt5uUMShk1BHI6YeY3MLOoABAYAICACBAAIDABAQAQAAAAAAAAA==

> <PUBCHEM_IUPAC_OPENEYE_NAME>
N-(6-chloro-9H-pyrido[3,4-b]indol-8-yl)-4-methoxy-benzamide

> <PUBCHEM_IUPAC_CAS_NAME>
N-(6-chloro-9H-pyrido[3,4-b]indol-8-yl)-4-methoxybenzamide

> <PUBCHEM_IUPAC_NAME_MARKUP>
<I>N</I>-(6-chloro-9<I>H</I>-pyrido[3,4-b]indol-8-yl)-4-methoxybenzamide

> <PUBCHEM_IUPAC_NAME>
N-(6-chloro-9H-pyrido[3,4-b]indol-8-yl)-4-methoxybenzamide

> <PUBCHEM_IUPAC_SYSTEMATIC_NAME>
N-(6-chloranyl-9H-pyrido[3,4-b]indol-8-yl)-4-methoxy-benzamide

> <PUBCHEM_IUPAC_TRADITIONAL_NAME>
N-(6-chloro-9H-beta-carbolin-8-yl)-4-methoxy-benzamide

> <PUBCHEM_IUPAC_INCHI>
InChI=1S/C19H14ClN3O2/c1-25-13-4-2-11(3-5-13)19(24)23-16-9-12(20)8-15-14-6-7-21-10-17(14)22-18(15)16/h2-10,22H,1H3,(H,23,24)

> <PUBCHEM_IUPAC_INCHIKEY>
GTSSLHGRDQNOSB-UHFFFAOYSA-N

> <PUBCHEM_XLOGP3_AA>
3.8

> <PUBCHEM_EXACT_MASS>
351.0774544

> <PUBCHEM_MOLECULAR_FORMULA>
C19H14ClN3O2

> <PUBCHEM_MOLECULAR_WEIGHT>
351.8

> <PUBCHEM_SMILES>
COC1=CC=C(C=C1)C(=O)NC2=CC(=CC3=C2NC4=C3C=CN=C4)Cl

> <PUBCHEM_OPENEYE_CAN_SMILES>
COC1=CC=C(C=C1)C(=O)NC2=CC(=CC3=C2NC4=C3C=CN=C4)Cl

> <PUBCHEM_OPENEYE_ISO_SMILES>
COC1=CC=C(C=C1)C(=O)NC2=CC(=CC3=C2NC4=C3C=CN=C4)Cl

> <PUBCHEM_CACTVS_TPSA>
67

> <PUBCHEM_MONOISOTOPIC_WEIGHT>
351.0774544

> <PUBCHEM_TOTAL_CHARGE>
0

> <PUBCHEM_HEAVY_ATOM_COUNT>
25

> <PUBCHEM_ATOM_DEF_STEREO_COUNT>
0

> <PUBCHEM_ATOM_UDEF_STEREO_COUNT>
0

> <PUBCHEM_BOND_DEF_STEREO_COUNT>
0

> <PUBCHEM_BOND_UDEF_STEREO_COUNT>
0

> <PUBCHEM_ISOTOPIC_ATOM_COUNT>
0

> <PUBCHEM_COMPONENT_COUNT>
1

> <PUBCHEM_CACTVS_TAUTO_COUNT>
-1

> <PUBCHEM_COORDINATE_TYPE>
1
5
255

> <PUBCHEM_BONDANNOTATIONS>
10  16  8
11  13  8
12  15  8
13  15  8
14  17  8
19  20  8
19  21  8
20  22  8
21  23  8
22  24  8
23  24  8
4  10  8
4  7  8
6  16  8
6  17  8
7  11  8
7  8  8
8  12  8
8  9  8
9  10  8
9  14  8

$$$$
