44460496
  -OEChem-03202505252D

 96102  0     1  0  0  0  0  0999 V2000
    7.7842    0.1987    0.0000 O   0  0  0  0  0  0  0  0  0  0  0  0
    8.6663   -2.3428    0.0000 O   0  0  0  0  0  0  0  0  0  0  0  0
   10.4365   -1.3459    0.0000 O   0  0  0  0  0  0  0  0  0  0  0  0
   10.4523    0.7023    0.0000 O   0  0  0  0  0  0  0  0  0  0  0  0
    8.6784    1.7264    0.0000 O   0  0  0  0  0  0  0  0  0  0  0  0
    6.0682    0.1572    0.0000 O   0  0  0  0  0  0  0  0  0  0  0  0
    7.8003   -3.8428    0.0000 O   0  0  0  0  0  0  0  0  0  0  0  0
   11.3198    0.1439    0.0000 O   0  0  0  0  0  0  0  0  0  0  0  0
    9.5921    2.2056    0.0000 O   0  0  0  0  0  0  0  0  0  0  0  0
    6.9464    1.7198    0.0000 O   0  0  0  0  0  0  0  0  0  0  0  0
    4.3198   -3.8774    0.0000 O   0  0  0  0  0  0  0  0  0  0  0  0
    4.9502   -4.7632    0.0000 O   0  0  0  0  0  0  0  0  0  0  0  0
    2.5381   -0.8187    0.0000 O   0  0  0  0  0  0  0  0  0  0  0  0
    2.5381   -2.8670    0.0000 O   0  0  0  0  0  0  0  0  0  0  0  0
    9.3312   -4.9116    0.0000 O   0  0  0  0  0  0  0  0  0  0  0  0
    7.0944   -6.2030    0.0000 O   0  0  0  0  0  0  0  0  0  0  0  0
   14.7721   -0.8960    0.0000 O   0  0  0  0  0  0  0  0  0  0  0  0
   13.0055   -3.8758    0.0000 O   0  0  0  0  0  0  0  0  0  0  0  0
   12.1998    4.6956    0.0000 O   0  0  0  0  0  0  0  0  0  0  0  0
   13.9202    1.6889    0.0000 O   0  0  0  0  0  0  0  0  0  0  0  0
   14.7490   -2.8959    0.0000 O   0  0  0  0  0  0  0  0  0  0  0  0
    6.0669    5.2164    0.0000 O   0  0  0  0  0  0  0  0  0  0  0  0
    9.5310    5.2298    0.0000 O   0  0  0  0  0  0  0  0  0  0  0  0
   13.9279    3.6889    0.0000 O   0  0  0  0  0  0  0  0  0  0  0  0
    7.7951    6.2231    0.0000 O   0  0  0  0  0  0  0  0  0  0  0  0
    8.6663   -1.3428    0.0000 C   0  0  3  0  0  0  0  0  0  0  0  0
    9.5763   -0.8360    0.0000 C   0  0  3  0  0  0  0  0  0  0  0  0
    7.8003   -0.8428    0.0000 C   0  0  3  0  0  0  0  0  0  0  0  0
    9.5844    0.2056    0.0000 C   0  0  3  0  0  0  0  0  0  0  0  0
    8.6823    0.7265    0.0000 C   0  0  2  0  0  0  0  0  0  0  0  0
    6.9343   -1.3428    0.0000 C   0  0  0  0  0  0  0  0  0  0  0  0
    6.0682   -0.8428    0.0000 C   0  0  0  0  0  0  0  0  0  0  0  0
    5.2022   -1.3428    0.0000 C   0  0  0  0  0  0  0  0  0  0  0  0
    7.8003   -2.8428    0.0000 C   0  0  0  0  0  0  0  0  0  0  0  0
    5.2022   -2.3428    0.0000 C   0  0  0  0  0  0  0  0  0  0  0  0
   11.3083   -0.8560    0.0000 C   0  0  0  0  0  0  0  0  0  0  0  0
    6.9343   -2.3428    0.0000 C   0  0  0  0  0  0  0  0  0  0  0  0
    6.0682   -2.8428    0.0000 C   0  0  0  0  0  0  0  0  0  0  0  0
   10.4562    1.7023    0.0000 C   0  0  0  0  0  0  0  0  0  0  0  0
    7.8105    2.2231    0.0000 C   0  0  0  0  0  0  0  0  0  0  0  0
    4.3083   -0.8081    0.0000 C   0  0  0  0  0  0  0  0  0  0  0  0
    4.3083   -2.8775    0.0000 C   0  0  0  0  0  0  0  0  0  0  0  0
   12.1685   -1.3660    0.0000 C   0  0  0  0  0  0  0  0  0  0  0  0
    8.3456   -2.9199    0.0000 C   0  0  0  0  0  0  0  0  0  0  0  0
    5.8624   -4.3536    0.0000 C   0  0  0  0  0  0  0  0  0  0  0  0
   11.3241    2.1989    0.0000 C   0  0  0  0  0  0  0  0  0  0  0  0
    3.4022   -1.3220    0.0000 C   0  0  0  0  0  0  0  0  0  0  0  0
    7.8066    3.2231    0.0000 C   0  0  0  0  0  0  0  0  0  0  0  0
    3.4022   -2.3636    0.0000 C   0  0  0  0  0  0  0  0  0  0  0  0
    8.4488   -4.4412    0.0000 C   0  0  0  0  0  0  0  0  0  0  0  0
    7.1283   -5.2036    0.0000 C   0  0  0  0  0  0  0  0  0  0  0  0
   12.1569   -2.3659    0.0000 C   0  0  0  0  0  0  0  0  0  0  0  0
   13.0402   -0.8760    0.0000 C   0  0  0  0  0  0  0  0  0  0  0  0
   12.1882    1.6956    0.0000 C   0  0  0  0  0  0  0  0  0  0  0  0
   11.3280    3.1989    0.0000 C   0  0  0  0  0  0  0  0  0  0  0  0
    8.6707    3.7264    0.0000 C   0  0  0  0  0  0  0  0  0  0  0  0
    6.9387    3.7198    0.0000 C   0  0  0  0  0  0  0  0  0  0  0  0
   13.9004   -1.3860    0.0000 C   0  0  0  0  0  0  0  0  0  0  0  0
   13.0171   -2.8759    0.0000 C   0  0  0  0  0  0  0  0  0  0  0  0
   12.1959    3.6956    0.0000 C   0  0  0  0  0  0  0  0  0  0  0  0
   13.0561    2.1923    0.0000 C   0  0  0  0  0  0  0  0  0  0  0  0
   13.8888   -2.3859    0.0000 C   0  0  0  0  0  0  0  0  0  0  0  0
    6.9348    4.7198    0.0000 C   0  0  0  0  0  0  0  0  0  0  0  0
    8.6669    4.7264    0.0000 C   0  0  0  0  0  0  0  0  0  0  0  0
   13.0600    3.1923    0.0000 C   0  0  0  0  0  0  0  0  0  0  0  0
    7.7989    5.2231    0.0000 C   0  0  0  0  0  0  0  0  0  0  0  0
    9.2009   -1.6569    0.0000 H   0  0  0  0  0  0  0  0  0  0  0  0
    9.5680   -1.4559    0.0000 H   0  0  0  0  0  0  0  0  0  0  0  0
    7.2610   -0.5370    0.0000 H   0  0  0  0  0  0  0  0  0  0  0  0
   10.1195   -0.1075    0.0000 H   0  0  0  0  0  0  0  0  0  0  0  0
    9.2186    1.0375    0.0000 H   0  0  0  0  0  0  0  0  0  0  0  0
    6.5358   -1.8178    0.0000 H   0  0  0  0  0  0  0  0  0  0  0  0
    7.3328   -1.8178    0.0000 H   0  0  0  0  0  0  0  0  0  0  0  0
    4.3154   -0.1882    0.0000 H   0  0  0  0  0  0  0  0  0  0  0  0
    8.8483   -2.5571    0.0000 H   0  0  0  0  0  0  0  0  0  0  0  0
   11.6164   -2.6697    0.0000 H   0  0  0  0  0  0  0  0  0  0  0  0
   13.0474   -0.2561    0.0000 H   0  0  0  0  0  0  0  0  0  0  0  0
   12.1858    1.0756    0.0000 H   0  0  0  0  0  0  0  0  0  0  0  0
   10.7922    3.5110    0.0000 H   0  0  0  0  0  0  0  0  0  0  0  0
    9.2088    3.4185    0.0000 H   0  0  0  0  0  0  0  0  0  0  0  0
    6.4029    3.4077    0.0000 H   0  0  0  0  0  0  0  0  0  0  0  0
    3.7865   -4.1936    0.0000 H   0  0  0  0  0  0  0  0  0  0  0  0
    4.8873   -5.3800    0.0000 H   0  0  0  0  0  0  0  0  0  0  0  0
    2.5405   -0.1987    0.0000 H   0  0  0  0  0  0  0  0  0  0  0  0
    2.0000   -2.5590    0.0000 H   0  0  0  0  0  0  0  0  0  0  0  0
    9.3522   -5.5312    0.0000 H   0  0  0  0  0  0  0  0  0  0  0  0
    7.6206   -6.5310    0.0000 H   0  0  0  0  0  0  0  0  0  0  0  0
   15.3055   -1.2122    0.0000 H   0  0  0  0  0  0  0  0  0  0  0  0
   13.5388   -4.1920    0.0000 H   0  0  0  0  0  0  0  0  0  0  0  0
   12.7379    5.0035    0.0000 H   0  0  0  0  0  0  0  0  0  0  0  0
   14.4584    1.9969    0.0000 H   0  0  0  0  0  0  0  0  0  0  0  0
   15.2895   -2.5921    0.0000 H   0  0  0  0  0  0  0  0  0  0  0  0
    5.5311    4.9043    0.0000 H   0  0  0  0  0  0  0  0  0  0  0  0
    9.5286    5.8498    0.0000 H   0  0  0  0  0  0  0  0  0  0  0  0
   13.9303    4.3089    0.0000 H   0  0  0  0  0  0  0  0  0  0  0  0
    7.2569    6.5310    0.0000 H   0  0  0  0  0  0  0  0  0  0  0  0
  1 28  1  0  0  0  0
  1 30  1  0  0  0  0
  2 26  1  0  0  0  0
  2 34  1  0  0  0  0
  3 27  1  0  0  0  0
  3 36  1  0  0  0  0
  4 29  1  0  0  0  0
  4 39  1  0  0  0  0
 30  5  1  6  0  0  0
  5 40  1  0  0  0  0
  6 32  2  0  0  0  0
  7 34  2  0  0  0  0
  8 36  2  0  0  0  0
  9 39  2  0  0  0  0
 10 40  2  0  0  0  0
 11 42  1  0  0  0  0
 11 82  1  0  0  0  0
 12 45  1  0  0  0  0
 12 83  1  0  0  0  0
 13 47  1  0  0  0  0
 13 84  1  0  0  0  0
 14 49  1  0  0  0  0
 14 85  1  0  0  0  0
 15 50  1  0  0  0  0
 15 86  1  0  0  0  0
 16 51  1  0  0  0  0
 16 87  1  0  0  0  0
 17 58  1  0  0  0  0
 17 88  1  0  0  0  0
 18 59  1  0  0  0  0
 18 89  1  0  0  0  0
 19 60  1  0  0  0  0
 19 90  1  0  0  0  0
 20 61  1  0  0  0  0
 20 91  1  0  0  0  0
 21 62  1  0  0  0  0
 21 92  1  0  0  0  0
 22 63  1  0  0  0  0
 22 93  1  0  0  0  0
 23 64  1  0  0  0  0
 23 94  1  0  0  0  0
 24 65  1  0  0  0  0
 24 95  1  0  0  0  0
 25 66  1  0  0  0  0
 25 96  1  0  0  0  0
 26 27  1  0  0  0  0
 26 28  1  0  0  0  0
 26 67  1  0  0  0  0
 27 29  1  0  0  0  0
 27 68  1  0  0  0  0
 28 31  1  0  0  0  0
 28 69  1  0  0  0  0
 29 30  1  0  0  0  0
 29 70  1  0  0  0  0
 30 71  1  0  0  0  0
 31 32  1  0  0  0  0
 31 72  1  0  0  0  0
 31 73  1  0  0  0  0
 32 33  1  0  0  0  0
 33 35  1  0  0  0  0
 33 41  2  0  0  0  0
 34 37  1  0  0  0  0
 35 38  1  0  0  0  0
 35 42  2  0  0  0  0
 36 43  1  0  0  0  0
 37 38  1  0  0  0  0
 37 44  2  0  0  0  0
 38 45  2  0  0  0  0
 39 46  1  0  0  0  0
 40 48  1  0  0  0  0
 41 47  1  0  0  0  0
 41 74  1  0  0  0  0
 42 49  1  0  0  0  0
 43 52  2  0  0  0  0
 43 53  1  0  0  0  0
 44 50  1  0  0  0  0
 44 75  1  0  0  0  0
 45 51  1  0  0  0  0
 46 54  2  0  0  0  0
 46 55  1  0  0  0  0
 47 49  2  0  0  0  0
 48 56  2  0  0  0  0
 48 57  1  0  0  0  0
 50 51  2  0  0  0  0
 52 59  1  0  0  0  0
 52 76  1  0  0  0  0
 53 58  2  0  0  0  0
 53 77  1  0  0  0  0
 54 61  1  0  0  0  0
 54 78  1  0  0  0  0
 55 60  2  0  0  0  0
 55 79  1  0  0  0  0
 56 64  1  0  0  0  0
 56 80  1  0  0  0  0
 57 63  2  0  0  0  0
 57 81  1  0  0  0  0
 58 62  1  0  0  0  0
 59 62  2  0  0  0  0
 60 65  1  0  0  0  0
 61 65  2  0  0  0  0
 63 66  1  0  0  0  0
 64 66  2  0  0  0  0
M  END
> <PUBCHEM_COMPOUND_CID>
44460496

> <PUBCHEM_COMPOUND_CANONICALIZED>
1

> <PUBCHEM_CACTVS_COMPLEXITY>
1750

> <PUBCHEM_CACTVS_HBOND_ACCEPTOR>
25

> <PUBCHEM_CACTVS_HBOND_DONOR>
15

> <PUBCHEM_CACTVS_ROTATABLE_BOND>
9

> <PUBCHEM_CACTVS_SUBSKEYS>
AAADceB8PgAAAAAAAAAAAAAAAAAAAAAAAAA0YMGDAAAAAACRVAAAGgAACAAADBSwmAMwDoAABgCIAqDSCAACAAAkIAAAiAEGiMgZJzaCNRqicQEl4BUPuYfK7PzOoAABCAAYQABAAAIQADCAAAAAAAAAAA==

> <PUBCHEM_IUPAC_OPENEYE_NAME>
[(13R)-3,4,5,20,21,22-hexahydroxy-8,17-dioxo-12,13-bis[(3,4,5-trihydroxybenzoyl)oxy]-9,14-dioxatetracyclo[16.4.0.02,7.010,15]docosa-1(22),2,4,6,18,20-hexaen-11-yl] 3,4,5-trihydroxybenzoate

> <PUBCHEM_IUPAC_CAS_NAME>
3,4,5-trihydroxybenzoic acid [(13R)-3,4,5,20,21,22-hexahydroxy-8,17-dioxo-12,13-bis[oxo-(3,4,5-trihydroxyphenyl)methoxy]-9,14-dioxatetracyclo[16.4.0.02,7.010,15]docosa-1(22),2,4,6,18,20-hexaen-11-yl] ester

> <PUBCHEM_IUPAC_NAME_MARKUP>
[(13<I>R</I>)-3,4,5,20,21,22-hexahydroxy-8,17-dioxo-12,13-bis[(3,4,5-trihydroxybenzoyl)oxy]-9,14-dioxatetracyclo[16.4.0.0<SUP>2,7</SUP>.0<SUP>10,15</SUP>]docosa-1(22),2,4,6,18,20-hexaen-11-yl] 3,4,5-trihydroxybenzoate

> <PUBCHEM_IUPAC_NAME>
[(13R)-3,4,5,20,21,22-hexahydroxy-8,17-dioxo-12,13-bis[(3,4,5-trihydroxybenzoyl)oxy]-9,14-dioxatetracyclo[16.4.0.02,7.010,15]docosa-1(22),2,4,6,18,20-hexaen-11-yl] 3,4,5-trihydroxybenzoate

> <PUBCHEM_IUPAC_SYSTEMATIC_NAME>
[(13R)-3,4,5,20,21,22-hexakis(oxidanyl)-8,17-bis(oxidanylidene)-12,13-bis[[3,4,5-tris(oxidanyl)phenyl]carbonyloxy]-9,14-dioxatetracyclo[16.4.0.02,7.010,15]docosa-1(22),2,4,6,18,20-hexaen-11-yl] 3,4,5-tris(oxidanyl)benzoate

> <PUBCHEM_IUPAC_TRADITIONAL_NAME>
3,4,5-trihydroxybenzoic acid [(13R)-12,13-digalloyloxy-3,4,5,20,21,22-hexahydroxy-8,17-diketo-9,14-dioxatetracyclo[16.4.0.02,7.010,15]docosa-1(22),2,4,6,18,20-hexaen-11-yl] ester

> <PUBCHEM_IUPAC_INCHI>
InChI=1S/C41H30O25/c42-15-9-24-34(63-40(61)14-8-23(50)31(55)33(57)26(14)25-13(15)7-22(49)30(54)32(25)56)35(64-37(58)10-1-16(43)27(51)17(44)2-10)36(65-38(59)11-3-18(45)28(52)19(46)4-11)41(62-24)66-39(60)12-5-20(47)29(53)21(48)6-12/h1-8,24,34-36,41,43-57H,9H2/t24?,34?,35?,36?,41-/m1/s1

> <PUBCHEM_IUPAC_INCHIKEY>
CYIPISXCVJSXDV-WHYZNTSBSA-N

> <PUBCHEM_XLOGP3_AA>
2.3

> <PUBCHEM_EXACT_MASS>
922.10761644

> <PUBCHEM_MOLECULAR_FORMULA>
C41H30O25

> <PUBCHEM_MOLECULAR_WEIGHT>
922.7

> <PUBCHEM_SMILES>
C1C2C(C(C([C@H](O2)OC(=O)C3=CC(=C(C(=C3)O)O)O)OC(=O)C4=CC(=C(C(=C4)O)O)O)OC(=O)C5=CC(=C(C(=C5)O)O)O)OC(=O)C6=CC(=C(C(=C6C7=C(C(=C(C=C7C1=O)O)O)O)O)O)O

> <PUBCHEM_OPENEYE_CAN_SMILES>
C1C2C(C(C(C(O2)OC(=O)C3=CC(=C(C(=C3)O)O)O)OC(=O)C4=CC(=C(C(=C4)O)O)O)OC(=O)C5=CC(=C(C(=C5)O)O)O)OC(=O)C6=CC(=C(C(=C6C7=C(C(=C(C=C7C1=O)O)O)O)O)O)O

> <PUBCHEM_OPENEYE_ISO_SMILES>
C1C2C(C(C([C@H](O2)OC(=O)C3=CC(=C(C(=C3)O)O)O)OC(=O)C4=CC(=C(C(=C4)O)O)O)OC(=O)C5=CC(=C(C(=C5)O)O)O)OC(=O)C6=CC(=C(C(=C6C7=C(C(=C(C=C7C1=O)O)O)O)O)O)O

> <PUBCHEM_CACTVS_TPSA>
435

> <PUBCHEM_MONOISOTOPIC_WEIGHT>
922.10761644

> <PUBCHEM_TOTAL_CHARGE>
0

> <PUBCHEM_HEAVY_ATOM_COUNT>
66

> <PUBCHEM_ATOM_DEF_STEREO_COUNT>
1

> <PUBCHEM_ATOM_UDEF_STEREO_COUNT>
4

> <PUBCHEM_BOND_DEF_STEREO_COUNT>
0

> <PUBCHEM_BOND_UDEF_STEREO_COUNT>
0

> <PUBCHEM_ISOTOPIC_ATOM_COUNT>
0

> <PUBCHEM_COMPONENT_COUNT>
1

> <PUBCHEM_CACTVS_TAUTO_COUNT>
-1

> <PUBCHEM_COORDINATE_TYPE>
1
5
255

> <PUBCHEM_BONDANNOTATIONS>
26  2  3
28  31  3
27  3  3
33  35  8
33  41  8
35  42  8
37  38  8
37  44  8
38  45  8
29  4  3
41  47  8
42  49  8
43  52  8
43  53  8
44  50  8
45  51  8
46  54  8
46  55  8
47  49  8
48  56  8
48  57  8
30  5  6
50  51  8
52  59  8
53  58  8
54  61  8
55  60  8
56  64  8
57  63  8
58  62  8
59  62  8
60  65  8
61  65  8
63  66  8
64  66  8

$$$$
