14802486
  -OEChem-03202505422D

 41 42  0     0  0  0  0  0  0999 V2000
    6.3301   -2.1377    0.0000 S   0  0  0  0  0  0  0  0  0  0  0  0
    5.3301   -2.1377    0.0000 O   0  0  0  0  0  0  0  0  0  0  0  0
    7.3301   -2.1377    0.0000 O   0  0  0  0  0  0  0  0  0  0  0  0
    5.4641    2.3623    0.0000 O   0  0  0  0  0  0  0  0  0  0  0  0
    2.8660    4.8623    0.0000 O   0  0  0  0  0  0  0  0  0  0  0  0
    2.0000    3.3623    0.0000 O   0  0  0  0  0  0  0  0  0  0  0  0
    6.3301   -1.1377    0.0000 N   0  0  0  0  0  0  0  0  0  0  0  0
    4.5981    0.8623    0.0000 N   0  0  0  0  0  0  0  0  0  0  0  0
    8.9962   -4.6585    0.0000 N   0  0  0  0  0  0  0  0  0  0  0  0
    6.3301   -3.1377    0.0000 C   0  0  0  0  0  0  0  0  0  0  0  0
    5.4641   -0.6377    0.0000 C   0  0  0  0  0  0  0  0  0  0  0  0
    7.1962   -3.6377    0.0000 C   0  0  0  0  0  0  0  0  0  0  0  0
    5.4641    0.3623    0.0000 C   0  0  0  0  0  0  0  0  0  0  0  0
    7.1962   -4.6377    0.0000 C   0  0  0  0  0  0  0  0  0  0  0  0
    5.4641   -3.6377    0.0000 C   0  0  0  0  0  0  0  0  0  0  0  0
    6.3301   -5.1377    0.0000 C   0  0  0  0  0  0  0  0  0  0  0  0
    8.0901   -3.1030    0.0000 C   0  0  0  0  0  0  0  0  0  0  0  0
    5.4641   -4.6377    0.0000 C   0  0  0  0  0  0  0  0  0  0  0  0
    3.7320    2.3623    0.0000 C   0  0  0  0  0  0  0  0  0  0  0  0
    4.5981    1.8623    0.0000 C   0  0  0  0  0  0  0  0  0  0  0  0
    8.0901   -5.1723    0.0000 C   0  0  0  0  0  0  0  0  0  0  0  0
    3.7320    3.3623    0.0000 C   0  0  0  0  0  0  0  0  0  0  0  0
    8.9962   -3.6168    0.0000 C   0  0  0  0  0  0  0  0  0  0  0  0
    2.8660    3.8623    0.0000 C   0  0  0  0  0  0  0  0  0  0  0  0
    4.8535   -0.5300    0.0000 H   0  0  0  0  0  0  0  0  0  0  0  0
    5.2520   -1.2203    0.0000 H   0  0  0  0  0  0  0  0  0  0  0  0
    6.8671   -0.8277    0.0000 H   0  0  0  0  0  0  0  0  0  0  0  0
    6.0747    0.2547    0.0000 H   0  0  0  0  0  0  0  0  0  0  0  0
    5.6762    0.9449    0.0000 H   0  0  0  0  0  0  0  0  0  0  0  0
    4.9272   -3.3277    0.0000 H   0  0  0  0  0  0  0  0  0  0  0  0
    4.0611    0.5523    0.0000 H   0  0  0  0  0  0  0  0  0  0  0  0
    6.3301   -5.7577    0.0000 H   0  0  0  0  0  0  0  0  0  0  0  0
    8.0829   -2.4830    0.0000 H   0  0  0  0  0  0  0  0  0  0  0  0
    4.9272   -4.9477    0.0000 H   0  0  0  0  0  0  0  0  0  0  0  0
    3.1215    2.4700    0.0000 H   0  0  0  0  0  0  0  0  0  0  0  0
    3.5200    1.7797    0.0000 H   0  0  0  0  0  0  0  0  0  0  0  0
    8.0829   -5.7923    0.0000 H   0  0  0  0  0  0  0  0  0  0  0  0
    4.3426    3.2547    0.0000 H   0  0  0  0  0  0  0  0  0  0  0  0
    3.9441    3.9449    0.0000 H   0  0  0  0  0  0  0  0  0  0  0  0
    9.5319   -3.3048    0.0000 H   0  0  0  0  0  0  0  0  0  0  0  0
    2.3291    5.1723    0.0000 H   0  0  0  0  0  0  0  0  0  0  0  0
  1  2  2  0  0  0  0
  1  3  2  0  0  0  0
  1  7  1  0  0  0  0
  1 10  1  0  0  0  0
  4 20  2  0  0  0  0
  5 24  1  0  0  0  0
  5 41  1  0  0  0  0
  6 24  2  0  0  0  0
  7 11  1  0  0  0  0
  7 27  1  0  0  0  0
  8 13  1  0  0  0  0
  8 20  1  0  0  0  0
  8 31  1  0  0  0  0
  9 21  2  0  0  0  0
  9 23  1  0  0  0  0
 10 12  1  0  0  0  0
 10 15  2  0  0  0  0
 11 13  1  0  0  0  0
 11 25  1  0  0  0  0
 11 26  1  0  0  0  0
 12 14  2  0  0  0  0
 12 17  1  0  0  0  0
 13 28  1  0  0  0  0
 13 29  1  0  0  0  0
 14 16  1  0  0  0  0
 14 21  1  0  0  0  0
 15 18  1  0  0  0  0
 15 30  1  0  0  0  0
 16 18  2  0  0  0  0
 16 32  1  0  0  0  0
 17 23  2  0  0  0  0
 17 33  1  0  0  0  0
 18 34  1  0  0  0  0
 19 20  1  0  0  0  0
 19 22  1  0  0  0  0
 19 35  1  0  0  0  0
 19 36  1  0  0  0  0
 21 37  1  0  0  0  0
 22 24  1  0  0  0  0
 22 38  1  0  0  0  0
 22 39  1  0  0  0  0
 23 40  1  0  0  0  0
M  END
> <PUBCHEM_COMPOUND_CID>
14802486

> <PUBCHEM_COMPOUND_CANONICALIZED>
1

> <PUBCHEM_CACTVS_COMPLEXITY>
546

> <PUBCHEM_CACTVS_HBOND_ACCEPTOR>
7

> <PUBCHEM_CACTVS_HBOND_DONOR>
3

> <PUBCHEM_CACTVS_ROTATABLE_BOND>
8

> <PUBCHEM_CACTVS_SUBSKEYS>
AAADceBzOABAAAAAAAAAAAAAAAAAAAAAAAA8QAAAAAAAAACx8AAAHgQQSAAADADB2gQ8idLIEgKoAjH3XHDCgDAxAiAI2Lk4ZJgIYPLAkZGUYAhklgDIyAc3gIAOgAAAgAAUAAAAAAEAACgAAAAAAAAAAA==

> <PUBCHEM_IUPAC_OPENEYE_NAME>
4-[2-(5-isoquinolylsulfonylamino)ethylamino]-4-oxo-butanoic acid

> <PUBCHEM_IUPAC_CAS_NAME>
4-[2-(5-isoquinolinylsulfonylamino)ethylamino]-4-oxobutanoic acid

> <PUBCHEM_IUPAC_NAME_MARKUP>
4-[2-(isoquinolin-5-ylsulfonylamino)ethylamino]-4-oxobutanoic acid

> <PUBCHEM_IUPAC_NAME>
4-[2-(isoquinolin-5-ylsulfonylamino)ethylamino]-4-oxobutanoic acid

> <PUBCHEM_IUPAC_SYSTEMATIC_NAME>
4-[2-(isoquinolin-5-ylsulfonylamino)ethylamino]-4-oxidanylidene-butanoic acid

> <PUBCHEM_IUPAC_TRADITIONAL_NAME>
4-[2-(5-isoquinolylsulfonylamino)ethylamino]-4-keto-butyric acid

> <PUBCHEM_IUPAC_INCHI>
InChI=1S/C15H17N3O5S/c19-14(4-5-15(20)21)17-8-9-18-24(22,23)13-3-1-2-11-10-16-7-6-12(11)13/h1-3,6-7,10,18H,4-5,8-9H2,(H,17,19)(H,20,21)

> <PUBCHEM_IUPAC_INCHIKEY>
UZYHNVQRUIMQHD-UHFFFAOYSA-N

> <PUBCHEM_XLOGP3_AA>
-0.2

> <PUBCHEM_EXACT_MASS>
351.08889182

> <PUBCHEM_MOLECULAR_FORMULA>
C15H17N3O5S

> <PUBCHEM_MOLECULAR_WEIGHT>
351.4

> <PUBCHEM_SMILES>
C1=CC2=C(C=CN=C2)C(=C1)S(=O)(=O)NCCNC(=O)CCC(=O)O

> <PUBCHEM_OPENEYE_CAN_SMILES>
C1=CC2=C(C=CN=C2)C(=C1)S(=O)(=O)NCCNC(=O)CCC(=O)O

> <PUBCHEM_OPENEYE_ISO_SMILES>
C1=CC2=C(C=CN=C2)C(=C1)S(=O)(=O)NCCNC(=O)CCC(=O)O

> <PUBCHEM_CACTVS_TPSA>
134

> <PUBCHEM_MONOISOTOPIC_WEIGHT>
351.08889182

> <PUBCHEM_TOTAL_CHARGE>
0

> <PUBCHEM_HEAVY_ATOM_COUNT>
24

> <PUBCHEM_ATOM_DEF_STEREO_COUNT>
0

> <PUBCHEM_ATOM_UDEF_STEREO_COUNT>
0

> <PUBCHEM_BOND_DEF_STEREO_COUNT>
0

> <PUBCHEM_BOND_UDEF_STEREO_COUNT>
0

> <PUBCHEM_ISOTOPIC_ATOM_COUNT>
0

> <PUBCHEM_COMPONENT_COUNT>
1

> <PUBCHEM_CACTVS_TAUTO_COUNT>
-1

> <PUBCHEM_COORDINATE_TYPE>
1
5
255

> <PUBCHEM_BONDANNOTATIONS>
10  12  8
10  15  8
12  14  8
12  17  8
14  16  8
14  21  8
15  18  8
16  18  8
17  23  8
9  21  8
9  23  8

$$$$
