135976272
  -OEChem-03202503132D

 20 22  0     0  0  0  0  0  0999 V2000
    5.2740    2.7846    0.0000 Cl  0  0  0  0  0  0  0  0  0  0  0  0
    4.3958   -2.7846    0.0000 O   0  0  0  0  0  0  0  0  0  0  0  0
    3.5298   -1.2846    0.0000 N   0  0  0  0  0  0  0  0  0  0  0  0
    5.2619   -1.2846    0.0000 N   0  0  0  0  0  0  0  0  0  0  0  0
    2.5836    0.0201    0.0000 N   0  0  0  0  0  0  0  0  0  0  0  0
    2.5836   -1.5894    0.0000 N   0  0  0  0  0  0  0  0  0  0  0  0
    4.3958    0.2154    0.0000 C   0  0  0  0  0  0  0  0  0  0  0  0
    5.2619   -0.2846    0.0000 C   0  0  0  0  0  0  0  0  0  0  0  0
    3.5298   -0.2846    0.0000 C   0  0  0  0  0  0  0  0  0  0  0  0
    4.3958   -1.7846    0.0000 C   0  0  0  0  0  0  0  0  0  0  0  0
    4.3798    1.2569    0.0000 C   0  0  0  0  0  0  0  0  0  0  0  0
    6.1719    0.2222    0.0000 C   0  0  0  0  0  0  0  0  0  0  0  0
    5.2778    1.7846    0.0000 C   0  0  0  0  0  0  0  0  0  0  0  0
    6.1799    1.2638    0.0000 C   0  0  0  0  0  0  0  0  0  0  0  0
    2.0000   -0.7846    0.0000 C   0  0  0  0  0  0  0  0  0  0  0  0
    5.7988   -1.5946    0.0000 H   0  0  0  0  0  0  0  0  0  0  0  0
    3.8393    1.5607    0.0000 H   0  0  0  0  0  0  0  0  0  0  0  0
    6.7052   -0.0940    0.0000 H   0  0  0  0  0  0  0  0  0  0  0  0
    6.7180    1.5718    0.0000 H   0  0  0  0  0  0  0  0  0  0  0  0
    1.3800   -0.7846    0.0000 H   0  0  0  0  0  0  0  0  0  0  0  0
  1 13  1  0  0  0  0
  2 10  2  0  0  0  0
  3  6  1  0  0  0  0
  3  9  1  0  0  0  0
  3 10  1  0  0  0  0
  4  8  1  0  0  0  0
  4 10  1  0  0  0  0
  4 16  1  0  0  0  0
  5  9  2  0  0  0  0
  5 15  1  0  0  0  0
  6 15  2  0  0  0  0
  7  8  2  0  0  0  0
  7  9  1  0  0  0  0
  7 11  1  0  0  0  0
  8 12  1  0  0  0  0
 11 13  2  0  0  0  0
 11 17  1  0  0  0  0
 12 14  2  0  0  0  0
 12 18  1  0  0  0  0
 13 14  1  0  0  0  0
 14 19  1  0  0  0  0
 15 20  1  0  0  0  0
M  END
> <PUBCHEM_COMPOUND_CID>
135976272

> <PUBCHEM_COMPOUND_CANONICALIZED>
1

> <PUBCHEM_CACTVS_COMPLEXITY>
287

> <PUBCHEM_CACTVS_HBOND_ACCEPTOR>
3

> <PUBCHEM_CACTVS_HBOND_DONOR>
1

> <PUBCHEM_CACTVS_ROTATABLE_BOND>
0

> <PUBCHEM_CACTVS_SUBSKEYS>
AAADcYBzoAAEAAAAAAAAAAAAAAAAAWAAAAA8QAAAAAAAAFixwAAAHgIYAAAADAqBGyQ10IbIEACqAiZjdACSgAsxh6AfyCAoZpiIKKLB25GEIAh4nQJIyCcQgAAOAABAIAACAAAAAIBAAAQAAAAAAAAAAA==

> <PUBCHEM_IUPAC_OPENEYE_NAME>
9-chloro-6H-[1,2,4]triazolo[1,5-c]quinazolin-5-one

> <PUBCHEM_IUPAC_CAS_NAME>
9-chloro-6H-[1,2,4]triazolo[1,5-c]quinazolin-5-one

> <PUBCHEM_IUPAC_NAME_MARKUP>
9-chloro-6<I>H</I>-[1,2,4]triazolo[1,5-c]quinazolin-5-one

> <PUBCHEM_IUPAC_NAME>
9-chloro-6H-[1,2,4]triazolo[1,5-c]quinazolin-5-one

> <PUBCHEM_IUPAC_SYSTEMATIC_NAME>
9-chloranyl-6H-[1,2,4]triazolo[1,5-c]quinazolin-5-one

> <PUBCHEM_IUPAC_TRADITIONAL_NAME>
9-chloro-6H-[1,2,4]triazolo[1,5-c]quinazolin-5-one

> <PUBCHEM_IUPAC_INCHI>
InChI=1S/C9H5ClN4O/c10-5-1-2-7-6(3-5)8-11-4-12-14(8)9(15)13-7/h1-4H,(H,13,15)

> <PUBCHEM_IUPAC_INCHIKEY>
GUMIRECWDDFABT-UHFFFAOYSA-N

> <PUBCHEM_XLOGP3_AA>
1.6

> <PUBCHEM_EXACT_MASS>
220.0151885

> <PUBCHEM_MOLECULAR_FORMULA>
C9H5ClN4O

> <PUBCHEM_MOLECULAR_WEIGHT>
220.61

> <PUBCHEM_SMILES>
C1=CC2=C(C=C1Cl)C3=NC=NN3C(=O)N2

> <PUBCHEM_OPENEYE_CAN_SMILES>
C1=CC2=C(C=C1Cl)C3=NC=NN3C(=O)N2

> <PUBCHEM_OPENEYE_ISO_SMILES>
C1=CC2=C(C=C1Cl)C3=NC=NN3C(=O)N2

> <PUBCHEM_CACTVS_TPSA>
59.8

> <PUBCHEM_MONOISOTOPIC_WEIGHT>
220.0151885

> <PUBCHEM_TOTAL_CHARGE>
0

> <PUBCHEM_HEAVY_ATOM_COUNT>
15

> <PUBCHEM_ATOM_DEF_STEREO_COUNT>
0

> <PUBCHEM_ATOM_UDEF_STEREO_COUNT>
0

> <PUBCHEM_BOND_DEF_STEREO_COUNT>
0

> <PUBCHEM_BOND_UDEF_STEREO_COUNT>
0

> <PUBCHEM_ISOTOPIC_ATOM_COUNT>
0

> <PUBCHEM_COMPONENT_COUNT>
1

> <PUBCHEM_CACTVS_TAUTO_COUNT>
-1

> <PUBCHEM_COORDINATE_TYPE>
1
5
255

> <PUBCHEM_BONDANNOTATIONS>
11  13  8
12  14  8
13  14  8
3  10  8
3  6  8
3  9  8
4  10  8
4  8  8
5  15  8
5  9  8
6  15  8
7  11  8
7  8  8
7  9  8
8  12  8

$$$$
