23570850
  -OEChem-03202503402D

 40 42  0     1  0  0  0  0  0999 V2000
    3.7320   -2.9050    0.0000 Cl  0  0  0  0  0  0  0  0  0  0  0  0
    2.0000   -1.9050    0.0000 Cl  0  0  0  0  0  0  0  0  0  0  0  0
    6.3301   -1.4050    0.0000 O   0  0  0  0  0  0  0  0  0  0  0  0
    7.1962    0.0950    0.0000 N   0  0  0  0  0  0  0  0  0  0  0  0
    4.5981    2.5950    0.0000 N   0  0  0  0  0  0  0  0  0  0  0  0
   10.7404   -1.7097    0.0000 N   0  0  0  0  0  0  0  0  0  0  0  0
   11.3241   -0.9050    0.0000 N   0  0  0  0  0  0  0  0  0  0  0  0
    5.4641    0.0950    0.0000 C   0  0  3  0  0  0  0  0  0  0  0  0
    5.4641    1.0950    0.0000 C   0  0  0  0  0  0  0  0  0  0  0  0
    4.5981   -0.4050    0.0000 C   0  0  0  0  0  0  0  0  0  0  0  0
    6.3301   -0.4050    0.0000 C   0  0  0  0  0  0  0  0  0  0  0  0
    4.5981    1.5950    0.0000 C   0  0  0  0  0  0  0  0  0  0  0  0
    4.5981   -1.4050    0.0000 C   0  0  0  0  0  0  0  0  0  0  0  0
    3.7320    0.0950    0.0000 C   0  0  0  0  0  0  0  0  0  0  0  0
    8.0622   -0.4050    0.0000 C   0  0  0  0  0  0  0  0  0  0  0  0
    9.7942   -0.4050    0.0000 C   0  0  0  0  0  0  0  0  0  0  0  0
    8.9282    0.0950    0.0000 C   0  0  0  0  0  0  0  0  0  0  0  0
    9.7942   -1.4050    0.0000 C   0  0  0  0  0  0  0  0  0  0  0  0
    8.0622   -1.4050    0.0000 C   0  0  0  0  0  0  0  0  0  0  0  0
    3.7320   -1.9050    0.0000 C   0  0  0  0  0  0  0  0  0  0  0  0
    2.8660   -0.4050    0.0000 C   0  0  0  0  0  0  0  0  0  0  0  0
    8.9282   -1.9050    0.0000 C   0  0  0  0  0  0  0  0  0  0  0  0
    2.8660   -1.4050    0.0000 C   0  0  0  0  0  0  0  0  0  0  0  0
   10.7404   -0.1003    0.0000 C   0  0  0  0  0  0  0  0  0  0  0  0
    5.4641   -0.5250    0.0000 H   0  0  0  0  0  0  0  0  0  0  0  0
    6.0747    0.9873    0.0000 H   0  0  0  0  0  0  0  0  0  0  0  0
    5.6762    1.6776    0.0000 H   0  0  0  0  0  0  0  0  0  0  0  0
    3.9875    1.7027    0.0000 H   0  0  0  0  0  0  0  0  0  0  0  0
    4.3860    1.0124    0.0000 H   0  0  0  0  0  0  0  0  0  0  0  0
    7.1962    0.7150    0.0000 H   0  0  0  0  0  0  0  0  0  0  0  0
    5.1350   -1.7150    0.0000 H   0  0  0  0  0  0  0  0  0  0  0  0
    3.7320    0.7150    0.0000 H   0  0  0  0  0  0  0  0  0  0  0  0
    8.9282    0.7150    0.0000 H   0  0  0  0  0  0  0  0  0  0  0  0
    7.5252   -1.7150    0.0000 H   0  0  0  0  0  0  0  0  0  0  0  0
    2.3291   -0.0950    0.0000 H   0  0  0  0  0  0  0  0  0  0  0  0
    4.0611    2.9050    0.0000 H   0  0  0  0  0  0  0  0  0  0  0  0
    5.1350    2.9050    0.0000 H   0  0  0  0  0  0  0  0  0  0  0  0
    8.9282   -2.5250    0.0000 H   0  0  0  0  0  0  0  0  0  0  0  0
   10.9331    0.4891    0.0000 H   0  0  0  0  0  0  0  0  0  0  0  0
   10.9331   -2.2990    0.0000 H   0  0  0  0  0  0  0  0  0  0  0  0
  1 20  1  0  0  0  0
  2 23  1  0  0  0  0
  3 11  2  0  0  0  0
  4 11  1  0  0  0  0
  4 15  1  0  0  0  0
  4 30  1  0  0  0  0
  5 12  1  0  0  0  0
  5 36  1  0  0  0  0
  5 37  1  0  0  0  0
  6  7  1  0  0  0  0
  6 18  1  0  0  0  0
  6 40  1  0  0  0  0
  7 24  2  0  0  0  0
  8  9  1  0  0  0  0
  8 10  1  0  0  0  0
  8 11  1  0  0  0  0
  8 25  1  0  0  0  0
  9 12  1  0  0  0  0
  9 26  1  0  0  0  0
  9 27  1  0  0  0  0
 10 13  2  0  0  0  0
 10 14  1  0  0  0  0
 12 28  1  0  0  0  0
 12 29  1  0  0  0  0
 13 20  1  0  0  0  0
 13 31  1  0  0  0  0
 14 21  2  0  0  0  0
 14 32  1  0  0  0  0
 15 17  2  0  0  0  0
 15 19  1  0  0  0  0
 16 17  1  0  0  0  0
 16 18  2  0  0  0  0
 16 24  1  0  0  0  0
 17 33  1  0  0  0  0
 18 22  1  0  0  0  0
 19 22  2  0  0  0  0
 19 34  1  0  0  0  0
 20 23  2  0  0  0  0
 21 23  1  0  0  0  0
 21 35  1  0  0  0  0
 22 38  1  0  0  0  0
 24 39  1  0  0  0  0
M  END
> <PUBCHEM_COMPOUND_CID>
23570850

> <PUBCHEM_COMPOUND_CANONICALIZED>
1

> <PUBCHEM_CACTVS_COMPLEXITY>
439

> <PUBCHEM_CACTVS_HBOND_ACCEPTOR>
3

> <PUBCHEM_CACTVS_HBOND_DONOR>
3

> <PUBCHEM_CACTVS_ROTATABLE_BOND>
5

> <PUBCHEM_CACTVS_SUBSKEYS>
AAADceB7oAAGAAAAAAAAAAAAAAAAAWAAAAAwYAAAAAAAAFgB9AAAHgIYAAAADQrBniQ8wPLjAACqAzV3UACSBAAhhwAYu+EwZpgIILLB19GEpAhgnADIyAcciMCOhACAYAACAAQIAQDAAAQACAAAAAAAAA==

> <PUBCHEM_IUPAC_OPENEYE_NAME>
4-amino-2-(3,4-dichlorophenyl)-N-(1H-indazol-5-yl)butanamide

> <PUBCHEM_IUPAC_CAS_NAME>
4-amino-2-(3,4-dichlorophenyl)-N-(1H-indazol-5-yl)butanamide

> <PUBCHEM_IUPAC_NAME_MARKUP>
4-amino-2-(3,4-dichlorophenyl)-<I>N</I>-(1<I>H</I>-indazol-5-yl)butanamide

> <PUBCHEM_IUPAC_NAME>
4-amino-2-(3,4-dichlorophenyl)-N-(1H-indazol-5-yl)butanamide

> <PUBCHEM_IUPAC_SYSTEMATIC_NAME>
4-azanyl-2-(3,4-dichlorophenyl)-N-(1H-indazol-5-yl)butanamide

> <PUBCHEM_IUPAC_TRADITIONAL_NAME>
4-amino-2-(3,4-dichlorophenyl)-N-(1H-indazol-5-yl)butyramide

> <PUBCHEM_IUPAC_INCHI>
InChI=1S/C17H16Cl2N4O/c18-14-3-1-10(8-15(14)19)13(5-6-20)17(24)22-12-2-4-16-11(7-12)9-21-23-16/h1-4,7-9,13H,5-6,20H2,(H,21,23)(H,22,24)

> <PUBCHEM_IUPAC_INCHIKEY>
XYZNKCSDQRKAFR-UHFFFAOYSA-N

> <PUBCHEM_XLOGP3_AA>
3

> <PUBCHEM_EXACT_MASS>
362.0701165

> <PUBCHEM_MOLECULAR_FORMULA>
C17H16Cl2N4O

> <PUBCHEM_MOLECULAR_WEIGHT>
363.2

> <PUBCHEM_SMILES>
C1=CC(=C(C=C1C(CCN)C(=O)NC2=CC3=C(C=C2)NN=C3)Cl)Cl

> <PUBCHEM_OPENEYE_CAN_SMILES>
C1=CC(=C(C=C1C(CCN)C(=O)NC2=CC3=C(C=C2)NN=C3)Cl)Cl

> <PUBCHEM_OPENEYE_ISO_SMILES>
C1=CC(=C(C=C1C(CCN)C(=O)NC2=CC3=C(C=C2)NN=C3)Cl)Cl

> <PUBCHEM_CACTVS_TPSA>
83.8

> <PUBCHEM_MONOISOTOPIC_WEIGHT>
362.0701165

> <PUBCHEM_TOTAL_CHARGE>
0

> <PUBCHEM_HEAVY_ATOM_COUNT>
24

> <PUBCHEM_ATOM_DEF_STEREO_COUNT>
0

> <PUBCHEM_ATOM_UDEF_STEREO_COUNT>
1

> <PUBCHEM_BOND_DEF_STEREO_COUNT>
0

> <PUBCHEM_BOND_UDEF_STEREO_COUNT>
0

> <PUBCHEM_ISOTOPIC_ATOM_COUNT>
0

> <PUBCHEM_COMPONENT_COUNT>
1

> <PUBCHEM_CACTVS_TAUTO_COUNT>
-1

> <PUBCHEM_COORDINATE_TYPE>
1
5
255

> <PUBCHEM_BONDANNOTATIONS>
10  13  8
10  14  8
13  20  8
14  21  8
15  17  8
15  19  8
16  17  8
16  18  8
16  24  8
18  22  8
19  22  8
20  23  8
21  23  8
6  18  8
6  7  8
7  24  8
8  9  3

$$$$
