49830739
  -OEChem-03202504222D

 39 41  0     0  0  0  0  0  0999 V2000
    6.0010   -0.7500    0.0000 S   0  0  0  0  0  0  0  0  0  0  0  0
    5.5010   -1.6160    0.0000 O   0  0  0  0  0  0  0  0  0  0  0  0
    6.5010    0.1160    0.0000 O   0  0  0  0  0  0  0  0  0  0  0  0
    6.8671   -1.2500    0.0000 N   0  0  0  0  0  0  0  0  0  0  0  0
   10.3591   -1.2847    0.0000 N   0  0  0  0  0  0  0  0  0  0  0  0
   10.3591    0.7847    0.0000 N   0  0  0  0  0  0  0  0  0  0  0  0
    2.5369    1.2500    0.0000 N   0  0  0  0  0  0  0  0  0  0  0  0
    7.7331   -0.7500    0.0000 C   0  0  0  0  0  0  0  0  0  0  0  0
    9.4651   -0.7500    0.0000 C   0  0  0  0  0  0  0  0  0  0  0  0
    9.4651    0.2500    0.0000 C   0  0  0  0  0  0  0  0  0  0  0  0
    5.1350   -0.2500    0.0000 C   0  0  0  0  0  0  0  0  0  0  0  0
    8.5991   -1.2500    0.0000 C   0  0  0  0  0  0  0  0  0  0  0  0
    7.7331    0.2500    0.0000 C   0  0  0  0  0  0  0  0  0  0  0  0
    8.5991    0.7500    0.0000 C   0  0  0  0  0  0  0  0  0  0  0  0
   11.2651   -0.7708    0.0000 C   0  0  0  0  0  0  0  0  0  0  0  0
   11.2651    0.2708    0.0000 C   0  0  0  0  0  0  0  0  0  0  0  0
    5.1350    0.7500    0.0000 C   0  0  0  0  0  0  0  0  0  0  0  0
    4.2690   -0.7500    0.0000 C   0  0  0  0  0  0  0  0  0  0  0  0
    4.2690    1.2500    0.0000 C   0  0  0  0  0  0  0  0  0  0  0  0
    3.4030   -0.2500    0.0000 C   0  0  0  0  0  0  0  0  0  0  0  0
    3.4030    0.7500    0.0000 C   0  0  0  0  0  0  0  0  0  0  0  0
   12.1292   -1.2741    0.0000 C   0  0  0  0  0  0  0  0  0  0  0  0
   12.1292    0.7742    0.0000 C   0  0  0  0  0  0  0  0  0  0  0  0
    6.8671   -1.8700    0.0000 H   0  0  0  0  0  0  0  0  0  0  0  0
    8.5991   -1.8700    0.0000 H   0  0  0  0  0  0  0  0  0  0  0  0
    7.1962    0.5600    0.0000 H   0  0  0  0  0  0  0  0  0  0  0  0
    8.5991    1.3700    0.0000 H   0  0  0  0  0  0  0  0  0  0  0  0
    5.6720    1.0600    0.0000 H   0  0  0  0  0  0  0  0  0  0  0  0
    4.2690   -1.3700    0.0000 H   0  0  0  0  0  0  0  0  0  0  0  0
    4.2690    1.8700    0.0000 H   0  0  0  0  0  0  0  0  0  0  0  0
    2.8660   -0.5600    0.0000 H   0  0  0  0  0  0  0  0  0  0  0  0
   11.8172   -1.8099    0.0000 H   0  0  0  0  0  0  0  0  0  0  0  0
   12.6650   -1.5862    0.0000 H   0  0  0  0  0  0  0  0  0  0  0  0
   12.4413   -0.7384    0.0000 H   0  0  0  0  0  0  0  0  0  0  0  0
   12.4413    0.2384    0.0000 H   0  0  0  0  0  0  0  0  0  0  0  0
   12.6650    1.0862    0.0000 H   0  0  0  0  0  0  0  0  0  0  0  0
   11.8172    1.3099    0.0000 H   0  0  0  0  0  0  0  0  0  0  0  0
    2.0000    0.9400    0.0000 H   0  0  0  0  0  0  0  0  0  0  0  0
    2.5369    1.8700    0.0000 H   0  0  0  0  0  0  0  0  0  0  0  0
  1  2  2  0  0  0  0
  1  3  2  0  0  0  0
  1  4  1  0  0  0  0
  1 11  1  0  0  0  0
  4  8  1  0  0  0  0
  4 24  1  0  0  0  0
  5  9  2  0  0  0  0
  5 15  1  0  0  0  0
  6 10  2  0  0  0  0
  6 16  1  0  0  0  0
  7 21  1  0  0  0  0
  7 38  1  0  0  0  0
  7 39  1  0  0  0  0
  8 12  2  0  0  0  0
  8 13  1  0  0  0  0
  9 10  1  0  0  0  0
  9 12  1  0  0  0  0
 10 14  1  0  0  0  0
 11 17  2  0  0  0  0
 11 18  1  0  0  0  0
 12 25  1  0  0  0  0
 13 14  2  0  0  0  0
 13 26  1  0  0  0  0
 14 27  1  0  0  0  0
 15 16  2  0  0  0  0
 15 22  1  0  0  0  0
 16 23  1  0  0  0  0
 17 19  1  0  0  0  0
 17 28  1  0  0  0  0
 18 20  2  0  0  0  0
 18 29  1  0  0  0  0
 19 21  2  0  0  0  0
 19 30  1  0  0  0  0
 20 21  1  0  0  0  0
 20 31  1  0  0  0  0
 22 32  1  0  0  0  0
 22 33  1  0  0  0  0
 22 34  1  0  0  0  0
 23 35  1  0  0  0  0
 23 36  1  0  0  0  0
 23 37  1  0  0  0  0
M  END
> <PUBCHEM_COMPOUND_CID>
49830739

> <PUBCHEM_COMPOUND_CANONICALIZED>
1

> <PUBCHEM_CACTVS_COMPLEXITY>
499

> <PUBCHEM_CACTVS_HBOND_ACCEPTOR>
6

> <PUBCHEM_CACTVS_HBOND_DONOR>
2

> <PUBCHEM_CACTVS_ROTATABLE_BOND>
3

> <PUBCHEM_CACTVS_SUBSKEYS>
AAADceB7sABAAAAAAAAAAAAAAAAAAAAAAAA8YIAAAAAAAACx9AAAHAQQQAAACAiBVgAywbJIEAKgASRiRHDCgDQhEiAImDgwdJgIYOLA0dGUJAhgkADIyAcQAAAAAASAAAQAACAACQAACAAAQAAAAAAAAA==

> <PUBCHEM_IUPAC_OPENEYE_NAME>
4-amino-N-(2,3-dimethylquinoxalin-6-yl)benzenesulfonamide

> <PUBCHEM_IUPAC_CAS_NAME>
4-amino-N-(2,3-dimethyl-6-quinoxalinyl)benzenesulfonamide

> <PUBCHEM_IUPAC_NAME_MARKUP>
4-amino-<I>N</I>-(2,3-dimethylquinoxalin-6-yl)benzenesulfonamide

> <PUBCHEM_IUPAC_NAME>
4-amino-N-(2,3-dimethylquinoxalin-6-yl)benzenesulfonamide

> <PUBCHEM_IUPAC_SYSTEMATIC_NAME>
4-azanyl-N-(2,3-dimethylquinoxalin-6-yl)benzenesulfonamide

> <PUBCHEM_IUPAC_TRADITIONAL_NAME>
4-amino-N-(2,3-dimethylquinoxalin-6-yl)benzenesulfonamide

> <PUBCHEM_IUPAC_INCHI>
InChI=1S/C16H16N4O2S/c1-10-11(2)19-16-9-13(5-8-15(16)18-10)20-23(21,22)14-6-3-12(17)4-7-14/h3-9,20H,17H2,1-2H3

> <PUBCHEM_IUPAC_INCHIKEY>
LKUJDAHYLPICSE-UHFFFAOYSA-N

> <PUBCHEM_XLOGP3_AA>
1.9

> <PUBCHEM_EXACT_MASS>
328.09939694

> <PUBCHEM_MOLECULAR_FORMULA>
C16H16N4O2S

> <PUBCHEM_MOLECULAR_WEIGHT>
328.4

> <PUBCHEM_SMILES>
CC1=C(N=C2C=C(C=CC2=N1)NS(=O)(=O)C3=CC=C(C=C3)N)C

> <PUBCHEM_OPENEYE_CAN_SMILES>
CC1=C(N=C2C=C(C=CC2=N1)NS(=O)(=O)C3=CC=C(C=C3)N)C

> <PUBCHEM_OPENEYE_ISO_SMILES>
CC1=C(N=C2C=C(C=CC2=N1)NS(=O)(=O)C3=CC=C(C=C3)N)C

> <PUBCHEM_CACTVS_TPSA>
106

> <PUBCHEM_MONOISOTOPIC_WEIGHT>
328.09939694

> <PUBCHEM_TOTAL_CHARGE>
0

> <PUBCHEM_HEAVY_ATOM_COUNT>
23

> <PUBCHEM_ATOM_DEF_STEREO_COUNT>
0

> <PUBCHEM_ATOM_UDEF_STEREO_COUNT>
0

> <PUBCHEM_BOND_DEF_STEREO_COUNT>
0

> <PUBCHEM_BOND_UDEF_STEREO_COUNT>
0

> <PUBCHEM_ISOTOPIC_ATOM_COUNT>
0

> <PUBCHEM_COMPONENT_COUNT>
1

> <PUBCHEM_CACTVS_TAUTO_COUNT>
-1

> <PUBCHEM_COORDINATE_TYPE>
1
5
255

> <PUBCHEM_BONDANNOTATIONS>
10  14  8
11  17  8
11  18  8
13  14  8
15  16  8
17  19  8
18  20  8
19  21  8
20  21  8
5  15  8
5  9  8
6  10  8
6  16  8
8  12  8
8  13  8
9  10  8
9  12  8

$$$$
