21362698
  -OEChem-03202505232D

 22 24  0     0  0  0  0  0  0999 V2000
    7.2557    1.7193    0.0000 Cl  0  0  0  0  0  0  0  0  0  0  0  0
    8.0050   -1.7403    0.0000 Cl  0  0  0  0  0  0  0  0  0  0  0  0
    8.6380    0.2078    0.0000 O   0  0  0  0  0  0  0  0  0  0  0  0
    5.1333    1.1203    0.0000 N   0  0  0  0  0  0  0  0  0  0  0  0
    2.6060   -0.0039    0.0000 N   0  0  0  0  0  0  0  0  0  0  0  0
    5.6333   -0.4185    0.0000 C   0  0  0  0  0  0  0  0  0  0  0  0
    4.6333   -0.4185    0.0000 C   0  0  0  0  0  0  0  0  0  0  0  0
    5.9423    0.5325    0.0000 C   0  0  0  0  0  0  0  0  0  0  0  0
    4.3243    0.5325    0.0000 C   0  0  0  0  0  0  0  0  0  0  0  0
    6.3183   -1.2033    0.0000 C   0  0  0  0  0  0  0  0  0  0  0  0
    6.9577    0.7648    0.0000 C   0  0  0  0  0  0  0  0  0  0  0  0
    3.9483   -1.2033    0.0000 C   0  0  0  0  0  0  0  0  0  0  0  0
    3.3089    0.7648    0.0000 C   0  0  0  0  0  0  0  0  0  0  0  0
    7.3388   -0.9946    0.0000 C   0  0  0  0  0  0  0  0  0  0  0  0
    7.6607   -0.0039    0.0000 C   0  0  0  0  0  0  0  0  0  0  0  0
    2.9278   -0.9946    0.0000 C   0  0  0  0  0  0  0  0  0  0  0  0
    5.1333    1.7403    0.0000 H   0  0  0  0  0  0  0  0  0  0  0  0
    6.1199   -1.7907    0.0000 H   0  0  0  0  0  0  0  0  0  0  0  0
    4.1467   -1.7907    0.0000 H   0  0  0  0  0  0  0  0  0  0  0  0
    3.1241    1.3566    0.0000 H   0  0  0  0  0  0  0  0  0  0  0  0
    2.5148   -1.4569    0.0000 H   0  0  0  0  0  0  0  0  0  0  0  0
    2.0000    0.1273    0.0000 H   0  0  0  0  0  0  0  0  0  0  0  0
  1 11  1  0  0  0  0
  2 14  1  0  0  0  0
  3 15  2  0  0  0  0
  4  8  1  0  0  0  0
  4  9  1  0  0  0  0
  4 17  1  0  0  0  0
  5 13  1  0  0  0  0
  5 16  1  0  0  0  0
  5 22  1  0  0  0  0
  6  7  2  0  0  0  0
  6  8  1  0  0  0  0
  6 10  1  0  0  0  0
  7  9  1  0  0  0  0
  7 12  1  0  0  0  0
  8 11  2  0  0  0  0
  9 13  2  0  0  0  0
 10 14  2  0  0  0  0
 10 18  1  0  0  0  0
 11 15  1  0  0  0  0
 12 16  2  0  0  0  0
 12 19  1  0  0  0  0
 13 20  1  0  0  0  0
 14 15  1  0  0  0  0
 16 21  1  0  0  0  0
M  END
> <PUBCHEM_COMPOUND_CID>
21362698

> <PUBCHEM_COMPOUND_CANONICALIZED>
1

> <PUBCHEM_CACTVS_COMPLEXITY>
565

> <PUBCHEM_CACTVS_HBOND_ACCEPTOR>
3

> <PUBCHEM_CACTVS_HBOND_DONOR>
2

> <PUBCHEM_CACTVS_ROTATABLE_BOND>
0

> <PUBCHEM_CACTVS_SUBSKEYS>
AAADcYBzIAAGAAAAAAAAAAAAAAAAAQAAAAAgQAAAAAAAAEAAAAAAHgIQAAAADA7BgAQAAALAAACIAqRWQACAAAAgAgAICIAIAkhIAAAAAAAEAAAAAACIgcIAAAAAAAAAAAAAAAAAAAAAAAAAAAAAAAAAAA==

> <PUBCHEM_IUPAC_OPENEYE_NAME>
6,8-dichloro-2,9-dihydropyrido[3,4-b]indol-7-one

> <PUBCHEM_IUPAC_CAS_NAME>
6,8-dichloro-2,9-dihydropyrido[3,4-b]indol-7-one

> <PUBCHEM_IUPAC_NAME_MARKUP>
6,8-dichloro-2,9-dihydropyrido[3,4-b]indol-7-one

> <PUBCHEM_IUPAC_NAME>
6,8-dichloro-2,9-dihydropyrido[3,4-b]indol-7-one

> <PUBCHEM_IUPAC_SYSTEMATIC_NAME>
6,8-bis(chloranyl)-2,9-dihydropyrido[3,4-b]indol-7-one

> <PUBCHEM_IUPAC_TRADITIONAL_NAME>
6,8-dichloro-2,9-dihydro-beta-carbolin-7-one

> <PUBCHEM_IUPAC_INCHI>
InChI=1S/C11H6Cl2N2O/c12-7-3-6-5-1-2-14-4-8(5)15-10(6)9(13)11(7)16/h1-4,14-15H

> <PUBCHEM_IUPAC_INCHIKEY>
FHXPAPGPWHUVTD-UHFFFAOYSA-N

> <PUBCHEM_XLOGP3_AA>
2

> <PUBCHEM_EXACT_MASS>
251.9857182

> <PUBCHEM_MOLECULAR_FORMULA>
C11H6Cl2N2O

> <PUBCHEM_MOLECULAR_WEIGHT>
253.08

> <PUBCHEM_SMILES>
C1=CNC=C2C1=C3C=C(C(=O)C(=C3N2)Cl)Cl

> <PUBCHEM_OPENEYE_CAN_SMILES>
C1=CNC=C2C1=C3C=C(C(=O)C(=C3N2)Cl)Cl

> <PUBCHEM_OPENEYE_ISO_SMILES>
C1=CNC=C2C1=C3C=C(C(=O)C(=C3N2)Cl)Cl

> <PUBCHEM_CACTVS_TPSA>
41.1

> <PUBCHEM_MONOISOTOPIC_WEIGHT>
251.9857182

> <PUBCHEM_TOTAL_CHARGE>
0

> <PUBCHEM_HEAVY_ATOM_COUNT>
16

> <PUBCHEM_ATOM_DEF_STEREO_COUNT>
0

> <PUBCHEM_ATOM_UDEF_STEREO_COUNT>
0

> <PUBCHEM_BOND_DEF_STEREO_COUNT>
0

> <PUBCHEM_BOND_UDEF_STEREO_COUNT>
0

> <PUBCHEM_ISOTOPIC_ATOM_COUNT>
0

> <PUBCHEM_COMPONENT_COUNT>
1

> <PUBCHEM_CACTVS_TAUTO_COUNT>
-1

> <PUBCHEM_COORDINATE_TYPE>
1
5
255

> <PUBCHEM_BONDANNOTATIONS>
10  14  8
11  15  8
12  16  8
14  15  8
4  8  8
4  9  8
5  13  8
5  16  8
6  10  8
6  7  8
6  8  8
7  12  8
7  9  8
8  11  8
9  13  8

$$$$
