49830851
  -OEChem-03202504032D

 81 85  0     0  0  0  0  0  0999 V2000
    5.2927   -3.1432    0.0000 Cl  0  0  0  0  0  0  0  0  0  0  0  0
    6.2296    2.5477    0.0000 O   0  0  0  0  0  0  0  0  0  0  0  0
    6.4591    0.2532    0.0000 O   0  0  0  0  0  0  0  0  0  0  0  0
    9.6425   -1.4396    0.0000 O   0  0  0  0  0  0  0  0  0  0  0  0
   12.0816   -2.4647    0.0000 O   0  0  0  0  0  0  0  0  0  0  0  0
    4.9976   -1.9822    0.0000 N   0  0  0  0  0  0  0  0  0  0  0  0
    6.9972   -1.3931    0.0000 N   0  0  0  0  0  0  0  0  0  0  0  0
   14.7270   -2.5112    0.0000 N   0  0  0  0  0  0  0  0  0  0  0  0
    4.4976   -0.4523    0.0000 C   0  0  0  0  0  0  0  0  0  0  0  0
    3.6929   -1.0359    0.0000 C   0  0  0  0  0  0  0  0  0  0  0  0
    4.0035   -1.9865    0.0000 C   0  0  0  0  0  0  0  0  0  0  0  0
    4.4976    0.5477    0.0000 C   0  0  0  0  0  0  0  0  0  0  0  0
    5.3023   -1.0359    0.0000 C   0  0  0  0  0  0  0  0  0  0  0  0
    3.3357   -2.7308    0.0000 C   0  0  0  0  0  0  0  0  0  0  0  0
    5.3636    1.0477    0.0000 C   0  0  0  0  0  0  0  0  0  0  0  0
    2.7144   -0.8297    0.0000 C   0  0  0  0  0  0  0  0  0  0  0  0
    3.6464   -3.6813    0.0000 C   0  0  0  0  0  0  0  0  0  0  0  0
    2.3572   -2.5246    0.0000 C   0  0  0  0  0  0  0  0  0  0  0  0
    5.3636    2.0477    0.0000 C   0  0  0  0  0  0  0  0  0  0  0  0
    6.2528   -0.7253    0.0000 C   0  0  0  0  0  0  0  0  0  0  0  0
    2.0465   -1.5740    0.0000 C   0  0  0  0  0  0  0  0  0  0  0  0
    2.9785   -4.4256    0.0000 C   0  0  0  0  0  0  0  0  0  0  0  0
    4.6249   -3.8875    0.0000 C   0  0  0  0  0  0  0  0  0  0  0  0
    7.9477   -1.0825    0.0000 C   0  0  0  0  0  0  0  0  0  0  0  0
    3.2892   -5.3761    0.0000 C   0  0  0  0  0  0  0  0  0  0  0  0
    2.0000   -4.2194    0.0000 C   0  0  0  0  0  0  0  0  0  0  0  0
    4.9355   -4.8380    0.0000 C   0  0  0  0  0  0  0  0  0  0  0  0
    6.2296    3.5477    0.0000 C   0  0  0  0  0  0  0  0  0  0  0  0
    4.2677   -5.5823    0.0000 C   0  0  0  0  0  0  0  0  0  0  0  0
    8.6920   -1.7503    0.0000 C   0  0  0  0  0  0  0  0  0  0  0  0
    7.0957    4.0477    0.0000 C   0  0  0  0  0  0  0  0  0  0  0  0
    7.0957    5.0477    0.0000 C   0  0  0  0  0  0  0  0  0  0  0  0
    5.3636    4.0477    0.0000 C   0  0  0  0  0  0  0  0  0  0  0  0
    7.9896    3.5130    0.0000 C   0  0  0  0  0  0  0  0  0  0  0  0
    6.2296    5.5477    0.0000 C   0  0  0  0  0  0  0  0  0  0  0  0
    5.3636    5.0477    0.0000 C   0  0  0  0  0  0  0  0  0  0  0  0
    7.9896    5.5823    0.0000 C   0  0  0  0  0  0  0  0  0  0  0  0
   10.3868   -2.1075    0.0000 C   0  0  0  0  0  0  0  0  0  0  0  0
    8.8957    4.0268    0.0000 C   0  0  0  0  0  0  0  0  0  0  0  0
    8.8957    5.0685    0.0000 C   0  0  0  0  0  0  0  0  0  0  0  0
   11.3373   -1.7968    0.0000 C   0  0  0  0  0  0  0  0  0  0  0  0
   13.0321   -2.1540    0.0000 C   0  0  0  0  0  0  0  0  0  0  0  0
   13.7764   -2.8218    0.0000 C   0  0  0  0  0  0  0  0  0  0  0  0
    4.2856    1.1303    0.0000 H   0  0  0  0  0  0  0  0  0  0  0  0
    3.8870    0.4400    0.0000 H   0  0  0  0  0  0  0  0  0  0  0  0
    5.3638   -2.4825    0.0000 H   0  0  0  0  0  0  0  0  0  0  0  0
    5.5757    0.4651    0.0000 H   0  0  0  0  0  0  0  0  0  0  0  0
    5.9742    1.1553    0.0000 H   0  0  0  0  0  0  0  0  0  0  0  0
    2.5218   -0.2404    0.0000 H   0  0  0  0  0  0  0  0  0  0  0  0
    1.9431   -2.9860    0.0000 H   0  0  0  0  0  0  0  0  0  0  0  0
    5.1516    2.6303    0.0000 H   0  0  0  0  0  0  0  0  0  0  0  0
    4.7530    1.9400    0.0000 H   0  0  0  0  0  0  0  0  0  0  0  0
    1.4398   -1.4462    0.0000 H   0  0  0  0  0  0  0  0  0  0  0  0
    6.8693   -1.9998    0.0000 H   0  0  0  0  0  0  0  0  0  0  0  0
    8.4356   -0.6999    0.0000 H   0  0  0  0  0  0  0  0  0  0  0  0
    7.6557   -0.5355    0.0000 H   0  0  0  0  0  0  0  0  0  0  0  0
    2.8751   -5.8376    0.0000 H   0  0  0  0  0  0  0  0  0  0  0  0
    2.1279   -3.6127    0.0000 H   0  0  0  0  0  0  0  0  0  0  0  0
    1.3933   -4.0915    0.0000 H   0  0  0  0  0  0  0  0  0  0  0  0
    1.8721   -4.8260    0.0000 H   0  0  0  0  0  0  0  0  0  0  0  0
    5.5422   -4.9659    0.0000 H   0  0  0  0  0  0  0  0  0  0  0  0
    4.4603   -6.1716    0.0000 H   0  0  0  0  0  0  0  0  0  0  0  0
    8.2041   -2.1329    0.0000 H   0  0  0  0  0  0  0  0  0  0  0  0
    8.9840   -2.2972    0.0000 H   0  0  0  0  0  0  0  0  0  0  0  0
    4.8267    3.7377    0.0000 H   0  0  0  0  0  0  0  0  0  0  0  0
    7.9824    2.8930    0.0000 H   0  0  0  0  0  0  0  0  0  0  0  0
    6.2296    6.1677    0.0000 H   0  0  0  0  0  0  0  0  0  0  0  0
    4.8267    5.3577    0.0000 H   0  0  0  0  0  0  0  0  0  0  0  0
    7.9824    6.2023    0.0000 H   0  0  0  0  0  0  0  0  0  0  0  0
    9.8989   -2.4900    0.0000 H   0  0  0  0  0  0  0  0  0  0  0  0
   10.6788   -2.6544    0.0000 H   0  0  0  0  0  0  0  0  0  0  0  0
    9.4314    3.7148    0.0000 H   0  0  0  0  0  0  0  0  0  0  0  0
    9.4314    5.3806    0.0000 H   0  0  0  0  0  0  0  0  0  0  0  0
   11.8252   -1.4143    0.0000 H   0  0  0  0  0  0  0  0  0  0  0  0
   11.0453   -1.2499    0.0000 H   0  0  0  0  0  0  0  0  0  0  0  0
   13.5200   -1.7714    0.0000 H   0  0  0  0  0  0  0  0  0  0  0  0
   12.7401   -1.6071    0.0000 H   0  0  0  0  0  0  0  0  0  0  0  0
   13.2885   -3.2044    0.0000 H   0  0  0  0  0  0  0  0  0  0  0  0
   14.0685   -3.3688    0.0000 H   0  0  0  0  0  0  0  0  0  0  0  0
   15.1884   -2.9252    0.0000 H   0  0  0  0  0  0  0  0  0  0  0  0
   14.8548   -1.9045    0.0000 H   0  0  0  0  0  0  0  0  0  0  0  0
  1 23  1  0  0  0  0
  2 19  1  0  0  0  0
  2 28  1  0  0  0  0
  3 20  2  0  0  0  0
  4 30  1  0  0  0  0
  4 38  1  0  0  0  0
  5 41  1  0  0  0  0
  5 42  1  0  0  0  0
  6 11  1  0  0  0  0
  6 13  1  0  0  0  0
  6 46  1  0  0  0  0
  7 20  1  0  0  0  0
  7 24  1  0  0  0  0
  7 54  1  0  0  0  0
  8 43  1  0  0  0  0
  8 80  1  0  0  0  0
  8 81  1  0  0  0  0
  9 10  1  0  0  0  0
  9 12  1  0  0  0  0
  9 13  2  0  0  0  0
 10 11  2  0  0  0  0
 10 16  1  0  0  0  0
 11 14  1  0  0  0  0
 12 15  1  0  0  0  0
 12 44  1  0  0  0  0
 12 45  1  0  0  0  0
 13 20  1  0  0  0  0
 14 17  1  0  0  0  0
 14 18  2  0  0  0  0
 15 19  1  0  0  0  0
 15 47  1  0  0  0  0
 15 48  1  0  0  0  0
 16 21  2  0  0  0  0
 16 49  1  0  0  0  0
 17 22  2  0  0  0  0
 17 23  1  0  0  0  0
 18 21  1  0  0  0  0
 18 50  1  0  0  0  0
 19 51  1  0  0  0  0
 19 52  1  0  0  0  0
 21 53  1  0  0  0  0
 22 25  1  0  0  0  0
 22 26  1  0  0  0  0
 23 27  2  0  0  0  0
 24 30  1  0  0  0  0
 24 55  1  0  0  0  0
 24 56  1  0  0  0  0
 25 29  2  0  0  0  0
 25 57  1  0  0  0  0
 26 58  1  0  0  0  0
 26 59  1  0  0  0  0
 26 60  1  0  0  0  0
 27 29  1  0  0  0  0
 27 61  1  0  0  0  0
 28 31  1  0  0  0  0
 28 33  2  0  0  0  0
 29 62  1  0  0  0  0
 30 63  1  0  0  0  0
 30 64  1  0  0  0  0
 31 32  1  0  0  0  0
 31 34  2  0  0  0  0
 32 35  1  0  0  0  0
 32 37  2  0  0  0  0
 33 36  1  0  0  0  0
 33 65  1  0  0  0  0
 34 39  1  0  0  0  0
 34 66  1  0  0  0  0
 35 36  2  0  0  0  0
 35 67  1  0  0  0  0
 36 68  1  0  0  0  0
 37 40  1  0  0  0  0
 37 69  1  0  0  0  0
 38 41  1  0  0  0  0
 38 70  1  0  0  0  0
 38 71  1  0  0  0  0
 39 40  2  0  0  0  0
 39 72  1  0  0  0  0
 40 73  1  0  0  0  0
 41 74  1  0  0  0  0
 41 75  1  0  0  0  0
 42 43  1  0  0  0  0
 42 76  1  0  0  0  0
 42 77  1  0  0  0  0
 43 78  1  0  0  0  0
 43 79  1  0  0  0  0
M  END
> <PUBCHEM_COMPOUND_CID>
49830851

> <PUBCHEM_COMPOUND_CANONICALIZED>
1

> <PUBCHEM_CACTVS_COMPLEXITY>
835

> <PUBCHEM_CACTVS_HBOND_ACCEPTOR>
5

> <PUBCHEM_CACTVS_HBOND_DONOR>
3

> <PUBCHEM_CACTVS_ROTATABLE_BOND>
15

> <PUBCHEM_CACTVS_SUBSKEYS>
AAADcfB/OAAEAAAAAAAAAAAAAAAAAWAAAAAwYMGAAAAAAFjB9AAAHgIQAAAADA7hniYyxvLJlACoAyVyVACCiCAnJSAImaGuTtgPZvLFt7uXOSjk1hHa6QeY2fOegAADIAAbAAAAAAZAADYAAAAAAAAAAA==

> <PUBCHEM_IUPAC_OPENEYE_NAME>
N-[2-[2-(2-aminoethoxy)ethoxy]ethyl]-7-(2-chloro-6-methyl-phenyl)-3-[3-(1-naphthyloxy)propyl]-1H-indole-2-carboxamide

> <PUBCHEM_IUPAC_CAS_NAME>
N-[2-[2-(2-aminoethoxy)ethoxy]ethyl]-7-(2-chloro-6-methylphenyl)-3-[3-(1-naphthalenyloxy)propyl]-1H-indole-2-carboxamide

> <PUBCHEM_IUPAC_NAME_MARKUP>
<I>N</I>-[2-[2-(2-aminoethoxy)ethoxy]ethyl]-7-(2-chloro-6-methylphenyl)-3-(3-naphthalen-1-yloxypropyl)-1<I>H</I>-indole-2-carboxamide

> <PUBCHEM_IUPAC_NAME>
N-[2-[2-(2-aminoethoxy)ethoxy]ethyl]-7-(2-chloro-6-methylphenyl)-3-(3-naphthalen-1-yloxypropyl)-1H-indole-2-carboxamide

> <PUBCHEM_IUPAC_SYSTEMATIC_NAME>
N-[2-[2-(2-azanylethoxy)ethoxy]ethyl]-7-(2-chloranyl-6-methyl-phenyl)-3-(3-naphthalen-1-yloxypropyl)-1H-indole-2-carboxamide

> <PUBCHEM_IUPAC_TRADITIONAL_NAME>
N-[2-[2-(2-aminoethoxy)ethoxy]ethyl]-7-(2-chloro-6-methyl-phenyl)-3-[3-(1-naphthoxy)propyl]-1H-indole-2-carboxamide

> <PUBCHEM_IUPAC_INCHI>
InChI=1S/C35H38ClN3O4/c1-24-8-4-15-30(36)32(24)29-13-6-12-27-28(14-7-19-43-31-16-5-10-25-9-2-3-11-26(25)31)34(39-33(27)29)35(40)38-18-21-42-23-22-41-20-17-37/h2-6,8-13,15-16,39H,7,14,17-23,37H2,1H3,(H,38,40)

> <PUBCHEM_IUPAC_INCHIKEY>
IXUVJFBUVNKVQJ-UHFFFAOYSA-N

> <PUBCHEM_XLOGP3_AA>
6.6

> <PUBCHEM_EXACT_MASS>
599.2550844

> <PUBCHEM_MOLECULAR_FORMULA>
C35H38ClN3O4

> <PUBCHEM_MOLECULAR_WEIGHT>
600.1

> <PUBCHEM_SMILES>
CC1=C(C(=CC=C1)Cl)C2=CC=CC3=C2NC(=C3CCCOC4=CC=CC5=CC=CC=C54)C(=O)NCCOCCOCCN

> <PUBCHEM_OPENEYE_CAN_SMILES>
CC1=C(C(=CC=C1)Cl)C2=CC=CC3=C2NC(=C3CCCOC4=CC=CC5=CC=CC=C54)C(=O)NCCOCCOCCN

> <PUBCHEM_OPENEYE_ISO_SMILES>
CC1=C(C(=CC=C1)Cl)C2=CC=CC3=C2NC(=C3CCCOC4=CC=CC5=CC=CC=C54)C(=O)NCCOCCOCCN

> <PUBCHEM_CACTVS_TPSA>
98.6

> <PUBCHEM_MONOISOTOPIC_WEIGHT>
599.2550844

> <PUBCHEM_TOTAL_CHARGE>
0

> <PUBCHEM_HEAVY_ATOM_COUNT>
43

> <PUBCHEM_ATOM_DEF_STEREO_COUNT>
0

> <PUBCHEM_ATOM_UDEF_STEREO_COUNT>
0

> <PUBCHEM_BOND_DEF_STEREO_COUNT>
0

> <PUBCHEM_BOND_UDEF_STEREO_COUNT>
0

> <PUBCHEM_ISOTOPIC_ATOM_COUNT>
0

> <PUBCHEM_COMPONENT_COUNT>
1

> <PUBCHEM_CACTVS_TAUTO_COUNT>
-1

> <PUBCHEM_COORDINATE_TYPE>
1
5
255

> <PUBCHEM_BONDANNOTATIONS>
10  11  8
10  16  8
11  14  8
14  18  8
16  21  8
17  22  8
17  23  8
18  21  8
22  25  8
23  27  8
25  29  8
27  29  8
28  31  8
28  33  8
31  32  8
31  34  8
32  35  8
32  37  8
33  36  8
34  39  8
35  36  8
37  40  8
39  40  8
6  11  8
6  13  8
9  10  8
9  13  8

$$$$
