49830573
  -OEChem-03202502132D

 38 41  0     0  0  0  0  0  0999 V2000
    7.0916    2.7093    0.0000 O   0  0  0  0  0  0  0  0  0  0  0  0
    8.0255   -0.3823    0.0000 N   0  0  0  0  0  0  0  0  0  0  0  0
    8.5255    1.8083    0.0000 N   0  0  0  0  0  0  0  0  0  0  0  0
    3.1830   -2.4182    0.0000 N   0  0  0  0  0  0  0  0  0  0  0  0
    7.1245    0.0516    0.0000 C   0  0  0  0  0  0  0  0  0  0  0  0
    6.9020    1.0265    0.0000 C   0  0  0  0  0  0  0  0  0  0  0  0
    5.3743   -0.3693    0.0000 C   0  0  0  0  0  0  0  0  0  0  0  0
    8.9265    0.0516    0.0000 C   0  0  0  0  0  0  0  0  0  0  0  0
    6.3720   -0.6686    0.0000 C   0  0  0  0  0  0  0  0  0  0  0  0
    9.1490    1.0265    0.0000 C   0  0  0  0  0  0  0  0  0  0  0  0
    5.9115    1.3488    0.0000 C   0  0  0  0  0  0  0  0  0  0  0  0
    7.5255    1.8083    0.0000 C   0  0  0  0  0  0  0  0  0  0  0  0
    5.1425    0.6463    0.0000 C   0  0  0  0  0  0  0  0  0  0  0  0
    4.6438   -1.0522    0.0000 C   0  0  0  0  0  0  0  0  0  0  0  0
    9.6790   -0.6686    0.0000 C   0  0  0  0  0  0  0  0  0  0  0  0
   10.1395    1.3488    0.0000 C   0  0  0  0  0  0  0  0  0  0  0  0
    3.6871   -0.7612    0.0000 C   0  0  0  0  0  0  0  0  0  0  0  0
    4.8701   -2.0263    0.0000 C   0  0  0  0  0  0  0  0  0  0  0  0
   10.6767   -0.3693    0.0000 C   0  0  0  0  0  0  0  0  0  0  0  0
   10.9085    0.6462    0.0000 C   0  0  0  0  0  0  0  0  0  0  0  0
    2.9567   -1.4442    0.0000 C   0  0  0  0  0  0  0  0  0  0  0  0
    4.1397   -2.7093    0.0000 C   0  0  0  0  0  0  0  0  0  0  0  0
    2.0000   -1.1531    0.0000 C   0  0  0  0  0  0  0  0  0  0  0  0
    6.5169   -1.2714    0.0000 H   0  0  0  0  0  0  0  0  0  0  0  0
    8.0255   -1.0023    0.0000 H   0  0  0  0  0  0  0  0  0  0  0  0
    5.7805    1.9548    0.0000 H   0  0  0  0  0  0  0  0  0  0  0  0
    4.5507    0.8313    0.0000 H   0  0  0  0  0  0  0  0  0  0  0  0
    8.7945    2.3669    0.0000 H   0  0  0  0  0  0  0  0  0  0  0  0
    9.5340   -1.2714    0.0000 H   0  0  0  0  0  0  0  0  0  0  0  0
   10.2704    1.9548    0.0000 H   0  0  0  0  0  0  0  0  0  0  0  0
    3.5468   -0.1572    0.0000 H   0  0  0  0  0  0  0  0  0  0  0  0
    5.4633   -2.2068    0.0000 H   0  0  0  0  0  0  0  0  0  0  0  0
   11.1296   -0.7928    0.0000 H   0  0  0  0  0  0  0  0  0  0  0  0
   11.5002    0.8312    0.0000 H   0  0  0  0  0  0  0  0  0  0  0  0
    4.2800   -3.3132    0.0000 H   0  0  0  0  0  0  0  0  0  0  0  0
    2.1805   -0.5599    0.0000 H   0  0  0  0  0  0  0  0  0  0  0  0
    1.4068   -0.9726    0.0000 H   0  0  0  0  0  0  0  0  0  0  0  0
    1.8195   -1.7462    0.0000 H   0  0  0  0  0  0  0  0  0  0  0  0
  1 12  2  0  0  0  0
  2  5  1  0  0  0  0
  2  8  1  0  0  0  0
  2 25  1  0  0  0  0
  3 10  1  0  0  0  0
  3 12  1  0  0  0  0
  3 28  1  0  0  0  0
  4 21  2  0  0  0  0
  4 22  1  0  0  0  0
  5  6  2  0  0  0  0
  5  9  1  0  0  0  0
  6 11  1  0  0  0  0
  6 12  1  0  0  0  0
  7  9  2  0  0  0  0
  7 13  1  0  0  0  0
  7 14  1  0  0  0  0
  8 10  1  0  0  0  0
  8 15  2  0  0  0  0
  9 24  1  0  0  0  0
 10 16  2  0  0  0  0
 11 13  2  0  0  0  0
 11 26  1  0  0  0  0
 13 27  1  0  0  0  0
 14 17  2  0  0  0  0
 14 18  1  0  0  0  0
 15 19  1  0  0  0  0
 15 29  1  0  0  0  0
 16 20  1  0  0  0  0
 16 30  1  0  0  0  0
 17 21  1  0  0  0  0
 17 31  1  0  0  0  0
 18 22  2  0  0  0  0
 18 32  1  0  0  0  0
 19 20  2  0  0  0  0
 19 33  1  0  0  0  0
 20 34  1  0  0  0  0
 21 23  1  0  0  0  0
 22 35  1  0  0  0  0
 23 36  1  0  0  0  0
 23 37  1  0  0  0  0
 23 38  1  0  0  0  0
M  END
> <PUBCHEM_COMPOUND_CID>
49830573

> <PUBCHEM_COMPOUND_CANONICALIZED>
1

> <PUBCHEM_CACTVS_COMPLEXITY>
440

> <PUBCHEM_CACTVS_HBOND_ACCEPTOR>
3

> <PUBCHEM_CACTVS_HBOND_DONOR>
2

> <PUBCHEM_CACTVS_ROTATABLE_BOND>
1

> <PUBCHEM_CACTVS_SUBSKEYS>
AAADccB7IAAAAAAAAAAAAAAAAAAAAAAAAAA8YIAABYAAAAAB0AAAHgAQAAAADAjBngQ+wJLIEACoAzV3VACCgCA1AiAI2CE4dNgIYHrA1ZGUIYhglADIyccYiMCOwAAAQAACACCAAACAAAQAQAAAAAAAAA==

> <PUBCHEM_IUPAC_OPENEYE_NAME>
9-(2-methyl-4-pyridyl)-5,11-dihydrobenzo[b][1,4]benzodiazepin-6-one

> <PUBCHEM_IUPAC_CAS_NAME>
9-(2-methyl-4-pyridinyl)-5,11-dihydrobenzo[b][1,4]benzodiazepin-6-one

> <PUBCHEM_IUPAC_NAME_MARKUP>
9-(2-methylpyridin-4-yl)-5,11-dihydrobenzo[b][1,4]benzodiazepin-6-one

> <PUBCHEM_IUPAC_NAME>
9-(2-methylpyridin-4-yl)-5,11-dihydrobenzo[b][1,4]benzodiazepin-6-one

> <PUBCHEM_IUPAC_SYSTEMATIC_NAME>
9-(2-methylpyridin-4-yl)-5,11-dihydrobenzo[b][1,4]benzodiazepin-6-one

> <PUBCHEM_IUPAC_TRADITIONAL_NAME>
9-(2-methyl-4-pyridyl)-5,11-dihydrobenzo[b][1,4]benzodiazepin-6-one

> <PUBCHEM_IUPAC_INCHI>
InChI=1S/C19H15N3O/c1-12-10-14(8-9-20-12)13-6-7-15-18(11-13)21-16-4-2-3-5-17(16)22-19(15)23/h2-11,21H,1H3,(H,22,23)

> <PUBCHEM_IUPAC_INCHIKEY>
KIEFRRZUZZNWHT-UHFFFAOYSA-N

> <PUBCHEM_XLOGP3_AA>
3.3

> <PUBCHEM_EXACT_MASS>
301.121512110

> <PUBCHEM_MOLECULAR_FORMULA>
C19H15N3O

> <PUBCHEM_MOLECULAR_WEIGHT>
301.3

> <PUBCHEM_SMILES>
CC1=NC=CC(=C1)C2=CC3=C(C=C2)C(=O)NC4=CC=CC=C4N3

> <PUBCHEM_OPENEYE_CAN_SMILES>
CC1=NC=CC(=C1)C2=CC3=C(C=C2)C(=O)NC4=CC=CC=C4N3

> <PUBCHEM_OPENEYE_ISO_SMILES>
CC1=NC=CC(=C1)C2=CC3=C(C=C2)C(=O)NC4=CC=CC=C4N3

> <PUBCHEM_CACTVS_TPSA>
54

> <PUBCHEM_MONOISOTOPIC_WEIGHT>
301.121512110

> <PUBCHEM_TOTAL_CHARGE>
0

> <PUBCHEM_HEAVY_ATOM_COUNT>
23

> <PUBCHEM_ATOM_DEF_STEREO_COUNT>
0

> <PUBCHEM_ATOM_UDEF_STEREO_COUNT>
0

> <PUBCHEM_BOND_DEF_STEREO_COUNT>
0

> <PUBCHEM_BOND_UDEF_STEREO_COUNT>
0

> <PUBCHEM_ISOTOPIC_ATOM_COUNT>
0

> <PUBCHEM_COMPONENT_COUNT>
1

> <PUBCHEM_CACTVS_TAUTO_COUNT>
-1

> <PUBCHEM_COORDINATE_TYPE>
1
5
255

> <PUBCHEM_BONDANNOTATIONS>
10  16  8
11  13  8
14  17  8
14  18  8
15  19  8
16  20  8
17  21  8
18  22  8
19  20  8
4  21  8
4  22  8
5  6  8
5  9  8
6  11  8
7  13  8
7  9  8
8  10  8
8  15  8

$$$$
