44440256
  -OEChem-03202505022D

 61 65  0     0  0  0  0  0  0999 V2000
    8.4209   -2.5217    0.0000 S   0  0  0  0  0  0  0  0  0  0  0  0
    2.6810    1.9408    0.0000 O   0  0  0  0  0  0  0  0  0  0  0  0
    2.0410    0.0460    0.0000 O   0  0  0  0  0  0  0  0  0  0  0  0
    2.6605    4.5865    0.0000 O   0  0  0  0  0  0  0  0  0  0  0  0
   12.3242   -3.7375    0.0000 O   0  0  0  0  0  0  0  0  0  0  0  0
    4.8566   -4.7239    0.0000 N   0  0  0  0  0  0  0  0  0  0  0  0
    5.8507   -4.7230    0.0000 N   0  0  0  0  0  0  0  0  0  0  0  0
    3.6820   -0.5083    0.0000 N   0  0  0  0  0  0  0  0  0  0  0  0
    5.0470   -2.2404    0.0000 C   0  0  0  0  0  0  0  0  0  0  0  0
    5.3560   -3.1915    0.0000 C   0  0  0  0  0  0  0  0  0  0  0  0
    4.0470   -2.2404    0.0000 C   0  0  0  0  0  0  0  0  0  0  0  0
    4.5470   -3.7793    0.0000 C   0  0  0  0  0  0  0  0  0  0  0  0
    3.7380   -3.1915    0.0000 C   0  0  0  0  0  0  0  0  0  0  0  0
    6.1587   -3.7779    0.0000 C   0  0  0  0  0  0  0  0  0  0  0  0
    3.3620   -1.4557    0.0000 C   0  0  0  0  0  0  0  0  0  0  0  0
    2.7225   -3.4238    0.0000 C   0  0  0  0  0  0  0  0  0  0  0  0
    2.3415   -1.6644    0.0000 C   0  0  0  0  0  0  0  0  0  0  0  0
    7.1103   -3.4705    0.0000 C   0  0  0  0  0  0  0  0  0  0  0  0
    2.0196   -2.6551    0.0000 C   0  0  0  0  0  0  0  0  0  0  0  0
    7.9183   -4.0597    0.0000 C   0  0  0  0  0  0  0  0  0  0  0  0
    7.4209   -2.5200    0.0000 C   0  0  0  0  0  0  0  0  0  0  0  0
    3.0215    0.2425    0.0000 C   0  0  0  0  0  0  0  0  0  0  0  0
    8.7283   -3.4733    0.0000 C   0  0  0  0  0  0  0  0  0  0  0  0
    3.3415    1.1900    0.0000 C   0  0  0  0  0  0  0  0  0  0  0  0
    9.6788   -3.7840    0.0000 C   0  0  0  0  0  0  0  0  0  0  0  0
    3.0010    2.8882    0.0000 C   0  0  0  0  0  0  0  0  0  0  0  0
    2.3405    3.6390    0.0000 C   0  0  0  0  0  0  0  0  0  0  0  0
   10.6294   -4.0946    0.0000 C   0  0  0  0  0  0  0  0  0  0  0  0
   11.5799   -4.4053    0.0000 C   0  0  0  0  0  0  0  0  0  0  0  0
   13.2747   -4.0481    0.0000 C   0  0  0  0  0  0  0  0  0  0  0  0
    2.0000    5.3373    0.0000 C   0  0  0  0  0  0  0  0  0  0  0  0
   13.4809   -5.0266    0.0000 C   0  0  0  0  0  0  0  0  0  0  0  0
   14.0190   -3.3803    0.0000 C   0  0  0  0  0  0  0  0  0  0  0  0
   14.4314   -5.3373    0.0000 C   0  0  0  0  0  0  0  0  0  0  0  0
   14.9695   -3.6910    0.0000 C   0  0  0  0  0  0  0  0  0  0  0  0
   15.1757   -4.6694    0.0000 C   0  0  0  0  0  0  0  0  0  0  0  0
    5.6534   -2.1115    0.0000 H   0  0  0  0  0  0  0  0  0  0  0  0
    4.9822   -1.6238    0.0000 H   0  0  0  0  0  0  0  0  0  0  0  0
    4.4930   -5.2261    0.0000 H   0  0  0  0  0  0  0  0  0  0  0  0
    2.5378   -4.0156    0.0000 H   0  0  0  0  0  0  0  0  0  0  0  0
    1.9284   -1.2021    0.0000 H   0  0  0  0  0  0  0  0  0  0  0  0
    1.4137   -2.7863    0.0000 H   0  0  0  0  0  0  0  0  0  0  0  0
    4.2899   -0.3864    0.0000 H   0  0  0  0  0  0  0  0  0  0  0  0
    7.9172   -4.6797    0.0000 H   0  0  0  0  0  0  0  0  0  0  0  0
    7.0574   -2.0178    0.0000 H   0  0  0  0  0  0  0  0  0  0  0  0
    3.8855    0.8926    0.0000 H   0  0  0  0  0  0  0  0  0  0  0  0
    3.7288    1.6741    0.0000 H   0  0  0  0  0  0  0  0  0  0  0  0
    3.5450    2.5908    0.0000 H   0  0  0  0  0  0  0  0  0  0  0  0
    3.3883    3.3723    0.0000 H   0  0  0  0  0  0  0  0  0  0  0  0
    1.7965    3.9364    0.0000 H   0  0  0  0  0  0  0  0  0  0  0  0
    1.9532    3.1549    0.0000 H   0  0  0  0  0  0  0  0  0  0  0  0
   11.2879   -4.9522    0.0000 H   0  0  0  0  0  0  0  0  0  0  0  0
   12.0678   -4.7879    0.0000 H   0  0  0  0  0  0  0  0  0  0  0  0
    2.4655    5.7468    0.0000 H   0  0  0  0  0  0  0  0  0  0  0  0
    1.5905    5.8028    0.0000 H   0  0  0  0  0  0  0  0  0  0  0  0
    1.5345    4.9278    0.0000 H   0  0  0  0  0  0  0  0  0  0  0  0
   13.0194   -5.4407    0.0000 H   0  0  0  0  0  0  0  0  0  0  0  0
   13.8911   -2.7736    0.0000 H   0  0  0  0  0  0  0  0  0  0  0  0
   14.5593   -5.9440    0.0000 H   0  0  0  0  0  0  0  0  0  0  0  0
   15.4310   -3.2769    0.0000 H   0  0  0  0  0  0  0  0  0  0  0  0
   15.7651   -4.8621    0.0000 H   0  0  0  0  0  0  0  0  0  0  0  0
  1 21  1  0  0  0  0
  1 23  1  0  0  0  0
  2 24  1  0  0  0  0
  2 26  1  0  0  0  0
  3 22  2  0  0  0  0
  4 27  1  0  0  0  0
  4 31  1  0  0  0  0
  5 29  1  0  0  0  0
  5 30  1  0  0  0  0
  6  7  1  0  0  0  0
  6 12  1  0  0  0  0
  6 39  1  0  0  0  0
  7 14  2  0  0  0  0
  8 15  1  0  0  0  0
  8 22  1  0  0  0  0
  8 43  1  0  0  0  0
  9 10  1  0  0  0  0
  9 11  1  0  0  0  0
  9 37  1  0  0  0  0
  9 38  1  0  0  0  0
 10 12  2  0  0  0  0
 10 14  1  0  0  0  0
 11 13  2  0  0  0  0
 11 15  1  0  0  0  0
 12 13  1  0  0  0  0
 13 16  1  0  0  0  0
 14 18  1  0  0  0  0
 15 17  2  0  0  0  0
 16 19  2  0  0  0  0
 16 40  1  0  0  0  0
 17 19  1  0  0  0  0
 17 41  1  0  0  0  0
 18 20  1  0  0  0  0
 18 21  2  0  0  0  0
 19 42  1  0  0  0  0
 20 23  2  0  0  0  0
 20 44  1  0  0  0  0
 21 45  1  0  0  0  0
 22 24  1  0  0  0  0
 23 25  1  0  0  0  0
 24 46  1  0  0  0  0
 24 47  1  0  0  0  0
 25 28  3  0  0  0  0
 26 27  1  0  0  0  0
 26 48  1  0  0  0  0
 26 49  1  0  0  0  0
 27 50  1  0  0  0  0
 27 51  1  0  0  0  0
 28 29  1  0  0  0  0
 29 52  1  0  0  0  0
 29 53  1  0  0  0  0
 30 32  2  0  0  0  0
 30 33  1  0  0  0  0
 31 54  1  0  0  0  0
 31 55  1  0  0  0  0
 31 56  1  0  0  0  0
 32 34  1  0  0  0  0
 32 57  1  0  0  0  0
 33 35  2  0  0  0  0
 33 58  1  0  0  0  0
 34 36  2  0  0  0  0
 34 59  1  0  0  0  0
 35 36  1  0  0  0  0
 35 60  1  0  0  0  0
 36 61  1  0  0  0  0
M  END
> <PUBCHEM_COMPOUND_CID>
44440256

> <PUBCHEM_COMPOUND_CANONICALIZED>
1

> <PUBCHEM_CACTVS_COMPLEXITY>
794

> <PUBCHEM_CACTVS_HBOND_ACCEPTOR>
6

> <PUBCHEM_CACTVS_HBOND_DONOR>
2

> <PUBCHEM_CACTVS_ROTATABLE_BOND>
10

> <PUBCHEM_CACTVS_SUBSKEYS>
AAADceB7OABAAAAAAAAAAAAAAAAAAeJEAAAwYAAAAAAWAGAB9AAAHgQYAAAADAyl3gKyx5LjBAjuEyVyUAqTDIAhKhBYuThmbJgPJqLk8d+HvCjk3BH66AeQwMAOgAAAQAASAAAAAACAACQAASAACQAAAA==

> <PUBCHEM_IUPAC_OPENEYE_NAME>
2-(2-methoxyethoxy)-N-[3-[5-(3-phenoxyprop-1-ynyl)-3-thienyl]-1,4-dihydroindeno[1,2-c]pyrazol-5-yl]acetamide

> <PUBCHEM_IUPAC_CAS_NAME>
2-(2-methoxyethoxy)-N-[3-[5-(3-phenoxyprop-1-ynyl)-3-thiophenyl]-1,4-dihydroindeno[1,2-c]pyrazol-5-yl]acetamide

> <PUBCHEM_IUPAC_NAME_MARKUP>
2-(2-methoxyethoxy)-<I>N</I>-[3-[5-(3-phenoxyprop-1-ynyl)thiophen-3-yl]-1,4-dihydroindeno[1,2-c]pyrazol-5-yl]acetamide

> <PUBCHEM_IUPAC_NAME>
2-(2-methoxyethoxy)-N-[3-[5-(3-phenoxyprop-1-ynyl)thiophen-3-yl]-1,4-dihydroindeno[1,2-c]pyrazol-5-yl]acetamide

> <PUBCHEM_IUPAC_SYSTEMATIC_NAME>
2-(2-methoxyethoxy)-N-[3-[5-(3-phenoxyprop-1-ynyl)thiophen-3-yl]-1,4-dihydroindeno[1,2-c]pyrazol-5-yl]ethanamide

> <PUBCHEM_IUPAC_TRADITIONAL_NAME>
2-(2-methoxyethoxy)-N-[3-[5-(3-phenoxyprop-1-ynyl)-3-thienyl]-1,4-dihydroindeno[1,2-c]pyrazol-5-yl]acetamide

> <PUBCHEM_IUPAC_INCHI>
InChI=1S/C28H25N3O4S/c1-33-13-14-34-17-26(32)29-25-11-5-10-22-23(25)16-24-27(30-31-28(22)24)19-15-21(36-18-19)9-6-12-35-20-7-3-2-4-8-20/h2-5,7-8,10-11,15,18H,12-14,16-17H2,1H3,(H,29,32)(H,30,31)

> <PUBCHEM_IUPAC_INCHIKEY>
MBCSWJAXGYYUOD-UHFFFAOYSA-N

> <PUBCHEM_XLOGP3_AA>
4

> <PUBCHEM_EXACT_MASS>
499.15657746

> <PUBCHEM_MOLECULAR_FORMULA>
C28H25N3O4S

> <PUBCHEM_MOLECULAR_WEIGHT>
499.6

> <PUBCHEM_SMILES>
COCCOCC(=O)NC1=CC=CC2=C1CC3=C2NN=C3C4=CSC(=C4)C#CCOC5=CC=CC=C5

> <PUBCHEM_OPENEYE_CAN_SMILES>
COCCOCC(=O)NC1=CC=CC2=C1CC3=C2NN=C3C4=CSC(=C4)C#CCOC5=CC=CC=C5

> <PUBCHEM_OPENEYE_ISO_SMILES>
COCCOCC(=O)NC1=CC=CC2=C1CC3=C2NN=C3C4=CSC(=C4)C#CCOC5=CC=CC=C5

> <PUBCHEM_CACTVS_TPSA>
114

> <PUBCHEM_MONOISOTOPIC_WEIGHT>
499.15657746

> <PUBCHEM_TOTAL_CHARGE>
0

> <PUBCHEM_HEAVY_ATOM_COUNT>
36

> <PUBCHEM_ATOM_DEF_STEREO_COUNT>
0

> <PUBCHEM_ATOM_UDEF_STEREO_COUNT>
0

> <PUBCHEM_BOND_DEF_STEREO_COUNT>
0

> <PUBCHEM_BOND_UDEF_STEREO_COUNT>
0

> <PUBCHEM_ISOTOPIC_ATOM_COUNT>
0

> <PUBCHEM_COMPONENT_COUNT>
1

> <PUBCHEM_CACTVS_TAUTO_COUNT>
-1

> <PUBCHEM_COORDINATE_TYPE>
1
5
255

> <PUBCHEM_BONDANNOTATIONS>
1  21  8
1  23  8
10  12  8
10  14  8
11  13  8
11  15  8
13  16  8
15  17  8
16  19  8
17  19  8
18  20  8
18  21  8
20  23  8
30  32  8
30  33  8
32  34  8
33  35  8
34  36  8
35  36  8
6  12  8
6  7  8
7  14  8

$$$$
