24896769
  -OEChem-03202500392D

 37 40  0     0  0  0  0  0  0999 V2000
    2.0000   -2.5172    0.0000 Cl  0  0  0  0  0  0  0  0  0  0  0  0
    5.4641   -2.5172    0.0000 Cl  0  0  0  0  0  0  0  0  0  0  0  0
    7.2124    1.5374    0.0000 Cl  0  0  0  0  0  0  0  0  0  0  0  0
    5.4458    4.5172    0.0000 F   0  0  0  0  0  0  0  0  0  0  0  0
    2.0000   -1.5172    0.0000 O   0  5  0  0  0  0  0  0  0  0  0  0
    2.8660   -1.0172    0.0000 N   0  3  0  0  0  0  0  0  0  0  0  0
    5.4920   -1.5519    0.0000 N   0  0  0  0  0  0  0  0  0  0  0  0
    4.5981   -0.0172    0.0000 C   0  0  0  0  0  0  0  0  0  0  0  0
    4.5981   -1.0172    0.0000 C   0  0  0  0  0  0  0  0  0  0  0  0
    3.7320   -1.5172    0.0000 C   0  0  0  0  0  0  0  0  0  0  0  0
    5.4920    0.5175    0.0000 C   0  0  0  0  0  0  0  0  0  0  0  0
    3.7320   -2.5172    0.0000 C   0  0  0  0  0  0  0  0  0  0  0  0
    3.7320    0.4828    0.0000 C   0  0  0  0  0  0  0  0  0  0  0  0
    5.4804    1.5174    0.0000 C   0  0  0  0  0  0  0  0  0  0  0  0
    6.3981    0.0036    0.0000 C   0  0  0  0  0  0  0  0  0  0  0  0
    2.8660   -0.0172    0.0000 C   0  0  0  0  0  0  0  0  0  0  0  0
    6.3981   -1.0380    0.0000 C   0  0  0  0  0  0  0  0  0  0  0  0
    2.8660   -3.0172    0.0000 C   0  0  0  0  0  0  0  0  0  0  0  0
    4.5981   -3.0172    0.0000 C   0  0  0  0  0  0  0  0  0  0  0  0
    6.3406    2.0274    0.0000 C   0  0  0  0  0  0  0  0  0  0  0  0
    4.6087    2.0074    0.0000 C   0  0  0  0  0  0  0  0  0  0  0  0
    2.8660   -4.0172    0.0000 C   0  0  0  0  0  0  0  0  0  0  0  0
    4.5981   -4.0172    0.0000 C   0  0  0  0  0  0  0  0  0  0  0  0
    6.3291    3.0273    0.0000 C   0  0  0  0  0  0  0  0  0  0  0  0
    4.5971    3.0073    0.0000 C   0  0  0  0  0  0  0  0  0  0  0  0
    3.7320   -4.5172    0.0000 C   0  0  0  0  0  0  0  0  0  0  0  0
    5.4573    3.5173    0.0000 C   0  0  0  0  0  0  0  0  0  0  0  0
    3.7320    1.1028    0.0000 H   0  0  0  0  0  0  0  0  0  0  0  0
    6.9338    0.3157    0.0000 H   0  0  0  0  0  0  0  0  0  0  0  0
    2.3291    0.2928    0.0000 H   0  0  0  0  0  0  0  0  0  0  0  0
    6.9338   -1.3501    0.0000 H   0  0  0  0  0  0  0  0  0  0  0  0
    4.0754    1.6912    0.0000 H   0  0  0  0  0  0  0  0  0  0  0  0
    2.3291   -4.3272    0.0000 H   0  0  0  0  0  0  0  0  0  0  0  0
    5.1350   -4.3272    0.0000 H   0  0  0  0  0  0  0  0  0  0  0  0
    6.8624    3.3435    0.0000 H   0  0  0  0  0  0  0  0  0  0  0  0
    4.0567    3.3110    0.0000 H   0  0  0  0  0  0  0  0  0  0  0  0
    3.7320   -5.1372    0.0000 H   0  0  0  0  0  0  0  0  0  0  0  0
  1 18  1  0  0  0  0
  2 19  1  0  0  0  0
  3 20  1  0  0  0  0
  4 27  1  0  0  0  0
  5  6  1  0  0  0  0
  6 10  2  0  0  0  0
  6 16  1  0  0  0  0
  7  9  2  0  0  0  0
  7 17  1  0  0  0  0
  8  9  1  0  0  0  0
  8 11  2  0  0  0  0
  8 13  1  0  0  0  0
  9 10  1  0  0  0  0
 10 12  1  0  0  0  0
 11 14  1  0  0  0  0
 11 15  1  0  0  0  0
 12 18  2  0  0  0  0
 12 19  1  0  0  0  0
 13 16  2  0  0  0  0
 13 28  1  0  0  0  0
 14 20  2  0  0  0  0
 14 21  1  0  0  0  0
 15 17  2  0  0  0  0
 15 29  1  0  0  0  0
 16 30  1  0  0  0  0
 17 31  1  0  0  0  0
 18 22  1  0  0  0  0
 19 23  2  0  0  0  0
 20 24  1  0  0  0  0
 21 25  2  0  0  0  0
 21 32  1  0  0  0  0
 22 26  2  0  0  0  0
 22 33  1  0  0  0  0
 23 26  1  0  0  0  0
 23 34  1  0  0  0  0
 24 27  2  0  0  0  0
 24 35  1  0  0  0  0
 25 27  1  0  0  0  0
 25 36  1  0  0  0  0
 26 37  1  0  0  0  0
M  CHG  2   5  -1   6   1
M  END
> <PUBCHEM_COMPOUND_CID>
24896769

> <PUBCHEM_COMPOUND_CANONICALIZED>
1

> <PUBCHEM_CACTVS_COMPLEXITY>
506

> <PUBCHEM_CACTVS_HBOND_ACCEPTOR>
3

> <PUBCHEM_CACTVS_HBOND_DONOR>
0

> <PUBCHEM_CACTVS_ROTATABLE_BOND>
2

> <PUBCHEM_CACTVS_SUBSKEYS>
AAADccB7IQAGAAAAAAAAAAAAAAAAAAAAAAA8eIEAAAAAAACx/AAAHQIEAAAADArBHiw8wPIYEACgAzRnRACCgCQxFyAo2CA4dpoIYOLBk5GUIAhggIDIyAcQgMAOgAAAAACBAAAAAAAAAQIAAAAAAAAAAA==

> <PUBCHEM_IUPAC_OPENEYE_NAME>
4-(2-chloro-4-fluoro-phenyl)-8-(2,6-dichlorophenyl)-7-oxido-1,7-naphthyridin-7-ium

> <PUBCHEM_IUPAC_CAS_NAME>
4-(2-chloro-4-fluorophenyl)-8-(2,6-dichlorophenyl)-7-oxido-1,7-naphthyridin-7-ium

> <PUBCHEM_IUPAC_NAME_MARKUP>
4-(2-chloro-4-fluorophenyl)-8-(2,6-dichlorophenyl)-7-oxido-1,7-naphthyridin-7-ium

> <PUBCHEM_IUPAC_NAME>
4-(2-chloro-4-fluorophenyl)-8-(2,6-dichlorophenyl)-7-oxido-1,7-naphthyridin-7-ium

> <PUBCHEM_IUPAC_SYSTEMATIC_NAME>
8-[2,6-bis(chloranyl)phenyl]-4-(2-chloranyl-4-fluoranyl-phenyl)-7-oxidanidyl-1,7-naphthyridin-7-ium

> <PUBCHEM_IUPAC_TRADITIONAL_NAME>
4-(2-chloro-4-fluoro-phenyl)-8-(2,6-dichlorophenyl)-7-oxido-1,7-naphthyridin-7-ium

> <PUBCHEM_IUPAC_INCHI>
InChI=1S/C20H10Cl3FN2O/c21-15-2-1-3-16(22)18(15)20-19-14(7-9-26(20)27)12(6-8-25-19)13-5-4-11(24)10-17(13)23/h1-10H

> <PUBCHEM_IUPAC_INCHIKEY>
AUZOBOALIFKXNA-UHFFFAOYSA-N

> <PUBCHEM_XLOGP3_AA>
5.4

> <PUBCHEM_EXACT_MASS>
417.984274

> <PUBCHEM_MOLECULAR_FORMULA>
C20H10Cl3FN2O

> <PUBCHEM_MOLECULAR_WEIGHT>
419.7

> <PUBCHEM_SMILES>
C1=CC(=C(C(=C1)Cl)C2=[N+](C=CC3=C(C=CN=C32)C4=C(C=C(C=C4)F)Cl)[O-])Cl

> <PUBCHEM_OPENEYE_CAN_SMILES>
C1=CC(=C(C(=C1)Cl)C2=[N+](C=CC3=C(C=CN=C32)C4=C(C=C(C=C4)F)Cl)[O-])Cl

> <PUBCHEM_OPENEYE_ISO_SMILES>
C1=CC(=C(C(=C1)Cl)C2=[N+](C=CC3=C(C=CN=C32)C4=C(C=C(C=C4)F)Cl)[O-])Cl

> <PUBCHEM_CACTVS_TPSA>
38.4

> <PUBCHEM_MONOISOTOPIC_WEIGHT>
417.984274

> <PUBCHEM_TOTAL_CHARGE>
0

> <PUBCHEM_HEAVY_ATOM_COUNT>
27

> <PUBCHEM_ATOM_DEF_STEREO_COUNT>
0

> <PUBCHEM_ATOM_UDEF_STEREO_COUNT>
0

> <PUBCHEM_BOND_DEF_STEREO_COUNT>
0

> <PUBCHEM_BOND_UDEF_STEREO_COUNT>
0

> <PUBCHEM_ISOTOPIC_ATOM_COUNT>
0

> <PUBCHEM_COMPONENT_COUNT>
1

> <PUBCHEM_CACTVS_TAUTO_COUNT>
-1

> <PUBCHEM_COORDINATE_TYPE>
1
5
255

> <PUBCHEM_BONDANNOTATIONS>
11  15  8
12  18  8
12  19  8
13  16  8
14  20  8
14  21  8
15  17  8
18  22  8
19  23  8
20  24  8
21  25  8
22  26  8
23  26  8
24  27  8
25  27  8
6  10  8
6  16  8
7  17  8
7  9  8
8  11  8
8  13  8
8  9  8
9  10  8

$$$$
