10479082
  -OEChem-03202506452D

 61 65  0     0  0  0  0  0  0999 V2000
    7.9128    4.1739    0.0000 O   0  0  0  0  0  0  0  0  0  0  0  0
    9.5878   -3.9139    0.0000 O   0  0  0  0  0  0  0  0  0  0  0  0
    3.5827    3.6739    0.0000 N   0  0  0  0  0  0  0  0  0  0  0  0
    4.4487    5.1739    0.0000 N   0  0  0  0  0  0  0  0  0  0  0  0
    7.0468    2.6739    0.0000 N   0  0  0  0  0  0  0  0  0  0  0  0
    7.9698   -3.9139    0.0000 N   0  0  0  0  0  0  0  0  0  0  0  0
    8.2788   -4.8649    0.0000 N   0  0  0  0  0  0  0  0  0  0  0  0
    2.0000    3.3375    0.0000 C   0  0  0  0  0  0  0  0  0  0  0  0
    2.5000    2.4715    0.0000 C   0  0  0  0  0  0  0  0  0  0  0  0
    2.6691    4.0807    0.0000 C   0  0  0  0  0  0  0  0  0  0  0  0
    3.4782    2.6794    0.0000 C   0  0  0  0  0  0  0  0  0  0  0  0
    4.4487    4.1739    0.0000 C   0  0  0  0  0  0  0  0  0  0  0  0
    5.3147    3.6739    0.0000 C   0  0  0  0  0  0  0  0  0  0  0  0
    6.1808    4.1739    0.0000 C   0  0  0  0  0  0  0  0  0  0  0  0
    5.3147    5.6739    0.0000 C   0  0  0  0  0  0  0  0  0  0  0  0
    6.1808    5.1739    0.0000 C   0  0  0  0  0  0  0  0  0  0  0  0
    8.7788    0.6739    0.0000 C   0  0  0  0  0  0  0  0  0  0  0  0
    7.0468    3.6739    0.0000 C   0  0  0  0  0  0  0  0  0  0  0  0
    8.7788   -0.3261    0.0000 C   0  0  0  0  0  0  0  0  0  0  0  0
    7.9128    2.1739    0.0000 C   0  0  0  0  0  0  0  0  0  0  0  0
    9.6448    1.1739    0.0000 C   0  0  0  0  0  0  0  0  0  0  0  0
    7.9128    1.1739    0.0000 C   0  0  0  0  0  0  0  0  0  0  0  0
    7.9128   -0.8261    0.0000 C   0  0  0  0  0  0  0  0  0  0  0  0
    8.7788    2.6739    0.0000 C   0  0  0  0  0  0  0  0  0  0  0  0
    9.6448   -0.8261    0.0000 C   0  0  0  0  0  0  0  0  0  0  0  0
    9.6448    2.1739    0.0000 C   0  0  0  0  0  0  0  0  0  0  0  0
    7.9128   -1.8261    0.0000 C   0  0  0  0  0  0  0  0  0  0  0  0
    8.7788   -2.3261    0.0000 C   0  0  0  0  0  0  0  0  0  0  0  0
    9.6448   -1.8261    0.0000 C   0  0  0  0  0  0  0  0  0  0  0  0
   10.5109    0.6739    0.0000 C   0  0  0  0  0  0  0  0  0  0  0  0
    7.0468   -0.3261    0.0000 C   0  0  0  0  0  0  0  0  0  0  0  0
    8.7788   -3.3261    0.0000 C   0  0  0  0  0  0  0  0  0  0  0  0
    9.2788   -4.8649    0.0000 C   0  0  0  0  0  0  0  0  0  0  0  0
    9.8666   -5.6739    0.0000 C   0  0  0  0  0  0  0  0  0  0  0  0
    1.5851    3.7983    0.0000 H   0  0  0  0  0  0  0  0  0  0  0  0
    1.4984    2.9731    0.0000 H   0  0  0  0  0  0  0  0  0  0  0  0
    1.9336    2.2193    0.0000 H   0  0  0  0  0  0  0  0  0  0  0  0
    2.6916    1.8818    0.0000 H   0  0  0  0  0  0  0  0  0  0  0  0
    2.9791    4.6176    0.0000 H   0  0  0  0  0  0  0  0  0  0  0  0
    2.1675    4.4451    0.0000 H   0  0  0  0  0  0  0  0  0  0  0  0
    3.5430    2.0628    0.0000 H   0  0  0  0  0  0  0  0  0  0  0  0
    4.0982    2.6794    0.0000 H   0  0  0  0  0  0  0  0  0  0  0  0
    5.3147    3.0539    0.0000 H   0  0  0  0  0  0  0  0  0  0  0  0
    5.3147    6.2939    0.0000 H   0  0  0  0  0  0  0  0  0  0  0  0
    6.7177    5.4839    0.0000 H   0  0  0  0  0  0  0  0  0  0  0  0
    7.3759    0.8639    0.0000 H   0  0  0  0  0  0  0  0  0  0  0  0
    6.5098    2.3639    0.0000 H   0  0  0  0  0  0  0  0  0  0  0  0
   10.1818   -0.5161    0.0000 H   0  0  0  0  0  0  0  0  0  0  0  0
    8.7788    3.2939    0.0000 H   0  0  0  0  0  0  0  0  0  0  0  0
   10.1818    2.4839    0.0000 H   0  0  0  0  0  0  0  0  0  0  0  0
    7.3759   -2.1361    0.0000 H   0  0  0  0  0  0  0  0  0  0  0  0
   10.1818   -2.1361    0.0000 H   0  0  0  0  0  0  0  0  0  0  0  0
   10.2009    0.1370    0.0000 H   0  0  0  0  0  0  0  0  0  0  0  0
   11.0478    0.3639    0.0000 H   0  0  0  0  0  0  0  0  0  0  0  0
   10.8209    1.2109    0.0000 H   0  0  0  0  0  0  0  0  0  0  0  0
    7.3568    0.2109    0.0000 H   0  0  0  0  0  0  0  0  0  0  0  0
    6.5098   -0.0161    0.0000 H   0  0  0  0  0  0  0  0  0  0  0  0
    6.7368   -0.8630    0.0000 H   0  0  0  0  0  0  0  0  0  0  0  0
    9.3650   -6.0384    0.0000 H   0  0  0  0  0  0  0  0  0  0  0  0
   10.2310   -6.1755    0.0000 H   0  0  0  0  0  0  0  0  0  0  0  0
   10.3682   -5.3095    0.0000 H   0  0  0  0  0  0  0  0  0  0  0  0
  1 18  2  0  0  0  0
  2 32  1  0  0  0  0
  2 33  1  0  0  0  0
  3 10  1  0  0  0  0
  3 11  1  0  0  0  0
  3 12  1  0  0  0  0
  4 12  2  0  0  0  0
  4 15  1  0  0  0  0
  5 18  1  0  0  0  0
  5 20  1  0  0  0  0
  5 47  1  0  0  0  0
  6  7  1  0  0  0  0
  6 32  2  0  0  0  0
  7 33  2  0  0  0  0
  8  9  1  0  0  0  0
  8 10  1  0  0  0  0
  8 35  1  0  0  0  0
  8 36  1  0  0  0  0
  9 11  1  0  0  0  0
  9 37  1  0  0  0  0
  9 38  1  0  0  0  0
 10 39  1  0  0  0  0
 10 40  1  0  0  0  0
 11 41  1  0  0  0  0
 11 42  1  0  0  0  0
 12 13  1  0  0  0  0
 13 14  2  0  0  0  0
 13 43  1  0  0  0  0
 14 16  1  0  0  0  0
 14 18  1  0  0  0  0
 15 16  2  0  0  0  0
 15 44  1  0  0  0  0
 16 45  1  0  0  0  0
 17 19  1  0  0  0  0
 17 21  2  0  0  0  0
 17 22  1  0  0  0  0
 19 23  2  0  0  0  0
 19 25  1  0  0  0  0
 20 22  2  0  0  0  0
 20 24  1  0  0  0  0
 21 26  1  0  0  0  0
 21 30  1  0  0  0  0
 22 46  1  0  0  0  0
 23 27  1  0  0  0  0
 23 31  1  0  0  0  0
 24 26  2  0  0  0  0
 24 49  1  0  0  0  0
 25 29  2  0  0  0  0
 25 48  1  0  0  0  0
 26 50  1  0  0  0  0
 27 28  2  0  0  0  0
 27 51  1  0  0  0  0
 28 29  1  0  0  0  0
 28 32  1  0  0  0  0
 29 52  1  0  0  0  0
 30 53  1  0  0  0  0
 30 54  1  0  0  0  0
 30 55  1  0  0  0  0
 31 56  1  0  0  0  0
 31 57  1  0  0  0  0
 31 58  1  0  0  0  0
 33 34  1  0  0  0  0
 34 59  1  0  0  0  0
 34 60  1  0  0  0  0
 34 61  1  0  0  0  0
M  END
> <PUBCHEM_COMPOUND_CID>
10479082

> <PUBCHEM_COMPOUND_CANONICALIZED>
1

> <PUBCHEM_CACTVS_COMPLEXITY>
686

> <PUBCHEM_CACTVS_HBOND_ACCEPTOR>
6

> <PUBCHEM_CACTVS_HBOND_DONOR>
1

> <PUBCHEM_CACTVS_ROTATABLE_BOND>
5

> <PUBCHEM_CACTVS_SUBSKEYS>
AAADceB7sAAAAAAAAAAAAAAAAAAAAWLAAAA8YIAAAAAAAAAB9AAAHgAYAAAADAjBmgQ/8JPIFECqAjd3dACSgCk9AiAb2CE4bNiIJvLAvZmOMQhs3API6aecyPCOyAACQAAQAACQAASAACAAAAAAAAAAAA==

> <PUBCHEM_IUPAC_OPENEYE_NAME>
N-[4-methyl-3-[2-methyl-4-(5-methyl-1,3,4-oxadiazol-2-yl)phenyl]phenyl]-2-pyrrolidin-1-yl-pyridine-4-carboxamide

> <PUBCHEM_IUPAC_CAS_NAME>
N-[4-methyl-3-[2-methyl-4-(5-methyl-1,3,4-oxadiazol-2-yl)phenyl]phenyl]-2-(1-pyrrolidinyl)-4-pyridinecarboxamide

> <PUBCHEM_IUPAC_NAME_MARKUP>
<I>N</I>-[4-methyl-3-[2-methyl-4-(5-methyl-1,3,4-oxadiazol-2-yl)phenyl]phenyl]-2-pyrrolidin-1-ylpyridine-4-carboxamide

> <PUBCHEM_IUPAC_NAME>
N-[4-methyl-3-[2-methyl-4-(5-methyl-1,3,4-oxadiazol-2-yl)phenyl]phenyl]-2-pyrrolidin-1-ylpyridine-4-carboxamide

> <PUBCHEM_IUPAC_SYSTEMATIC_NAME>
N-[4-methyl-3-[2-methyl-4-(5-methyl-1,3,4-oxadiazol-2-yl)phenyl]phenyl]-2-pyrrolidin-1-yl-pyridine-4-carboxamide

> <PUBCHEM_IUPAC_TRADITIONAL_NAME>
N-[4-methyl-3-[2-methyl-4-(5-methyl-1,3,4-oxadiazol-2-yl)phenyl]phenyl]-2-pyrrolidino-isonicotinamide

> <PUBCHEM_IUPAC_INCHI>
InChI=1S/C27H27N5O2/c1-17-6-8-22(29-26(33)20-10-11-28-25(15-20)32-12-4-5-13-32)16-24(17)23-9-7-21(14-18(23)2)27-31-30-19(3)34-27/h6-11,14-16H,4-5,12-13H2,1-3H3,(H,29,33)

> <PUBCHEM_IUPAC_INCHIKEY>
OBHNTFJGFUEQCQ-UHFFFAOYSA-N

> <PUBCHEM_XLOGP3_AA>
4.9

> <PUBCHEM_EXACT_MASS>
453.21647512

> <PUBCHEM_MOLECULAR_FORMULA>
C27H27N5O2

> <PUBCHEM_MOLECULAR_WEIGHT>
453.5

> <PUBCHEM_SMILES>
CC1=C(C=C(C=C1)NC(=O)C2=CC(=NC=C2)N3CCCC3)C4=C(C=C(C=C4)C5=NN=C(O5)C)C

> <PUBCHEM_OPENEYE_CAN_SMILES>
CC1=C(C=C(C=C1)NC(=O)C2=CC(=NC=C2)N3CCCC3)C4=C(C=C(C=C4)C5=NN=C(O5)C)C

> <PUBCHEM_OPENEYE_ISO_SMILES>
CC1=C(C=C(C=C1)NC(=O)C2=CC(=NC=C2)N3CCCC3)C4=C(C=C(C=C4)C5=NN=C(O5)C)C

> <PUBCHEM_CACTVS_TPSA>
84.2

> <PUBCHEM_MONOISOTOPIC_WEIGHT>
453.21647512

> <PUBCHEM_TOTAL_CHARGE>
0

> <PUBCHEM_HEAVY_ATOM_COUNT>
34

> <PUBCHEM_ATOM_DEF_STEREO_COUNT>
0

> <PUBCHEM_ATOM_UDEF_STEREO_COUNT>
0

> <PUBCHEM_BOND_DEF_STEREO_COUNT>
0

> <PUBCHEM_BOND_UDEF_STEREO_COUNT>
0

> <PUBCHEM_ISOTOPIC_ATOM_COUNT>
0

> <PUBCHEM_COMPONENT_COUNT>
1

> <PUBCHEM_CACTVS_TAUTO_COUNT>
-1

> <PUBCHEM_COORDINATE_TYPE>
1
5
255

> <PUBCHEM_BONDANNOTATIONS>
12  13  8
13  14  8
14  16  8
15  16  8
17  21  8
17  22  8
19  23  8
19  25  8
2  32  8
2  33  8
20  22  8
20  24  8
21  26  8
23  27  8
24  26  8
25  29  8
27  28  8
28  29  8
4  12  8
4  15  8
6  32  8
6  7  8
7  33  8

$$$$
