24952850
  -OEChem-03202504062D

 49 53  0     0  0  0  0  0  0999 V2000
    8.3447   -0.0803    0.0000 S   0  0  0  0  0  0  0  0  0  0  0  0
    2.0000   -0.9058    0.0000 S   0  0  0  0  0  0  0  0  0  0  0  0
    7.3578    2.8355    0.0000 F   0  0  0  0  0  0  0  0  0  0  0  0
    9.2952   -0.3909    0.0000 O   0  0  0  0  0  0  0  0  0  0  0  0
    7.3942    0.2304    0.0000 O   0  0  0  0  0  0  0  0  0  0  0  0
    8.0341   -1.0308    0.0000 N   0  0  0  0  0  0  0  0  0  0  0  0
    3.5762   -1.2423    0.0000 N   0  0  0  0  0  0  0  0  0  0  0  0
    8.0341   -2.6402    0.0000 N   0  0  0  0  0  0  0  0  0  0  0  0
    3.4071    0.3669    0.0000 N   0  0  0  0  0  0  0  0  0  0  0  0
    9.6177   -1.8355    0.0000 N   0  0  0  0  0  0  0  0  0  0  0  0
    8.6554    0.8703    0.0000 C   0  0  0  0  0  0  0  0  0  0  0  0
    7.0878   -1.3355    0.0000 C   0  0  0  0  0  0  0  0  0  0  0  0
    7.0878   -2.3355    0.0000 C   0  0  0  0  0  0  0  0  0  0  0  0
    5.3558   -1.3355    0.0000 C   0  0  0  0  0  0  0  0  0  0  0  0
    6.2218   -0.8355    0.0000 C   0  0  0  0  0  0  0  0  0  0  0  0
    4.4898   -0.8355    0.0000 C   0  0  0  0  0  0  0  0  0  0  0  0
    8.6177   -1.8355    0.0000 C   0  0  0  0  0  0  0  0  0  0  0  0
    9.6339    1.0765    0.0000 C   0  0  0  0  0  0  0  0  0  0  0  0
    7.9875    1.6146    0.0000 C   0  0  0  0  0  0  0  0  0  0  0  0
    6.2218   -2.8355    0.0000 C   0  0  0  0  0  0  0  0  0  0  0  0
    5.3558   -2.3355    0.0000 C   0  0  0  0  0  0  0  0  0  0  0  0
    4.3852    0.1590    0.0000 C   0  0  0  0  0  0  0  0  0  0  0  0
    2.9071   -0.4991    0.0000 C   0  0  0  0  0  0  0  0  0  0  0  0
    5.1284    0.8281    0.0000 C   0  0  0  0  0  0  0  0  0  0  0  0
    3.0769   -2.1019    0.0000 C   0  0  0  0  0  0  0  0  0  0  0  0
    2.1048   -1.8943    0.0000 C   0  0  0  0  0  0  0  0  0  0  0  0
    6.0794    0.5191    0.0000 C   0  0  0  0  0  0  0  0  0  0  0  0
    4.9205    1.8063    0.0000 C   0  0  0  0  0  0  0  0  0  0  0  0
    6.8226    1.1882    0.0000 C   0  0  0  0  0  0  0  0  0  0  0  0
    5.6636    2.4754    0.0000 C   0  0  0  0  0  0  0  0  0  0  0  0
    6.6147    2.1664    0.0000 C   0  0  0  0  0  0  0  0  0  0  0  0
    9.0694    0.4088    0.0000 H   0  0  0  0  0  0  0  0  0  0  0  0
    6.2218   -0.2155    0.0000 H   0  0  0  0  0  0  0  0  0  0  0  0
    9.7617    0.4698    0.0000 H   0  0  0  0  0  0  0  0  0  0  0  0
   10.2406    1.2043    0.0000 H   0  0  0  0  0  0  0  0  0  0  0  0
    9.5060    1.6831    0.0000 H   0  0  0  0  0  0  0  0  0  0  0  0
    8.4490    2.0286    0.0000 H   0  0  0  0  0  0  0  0  0  0  0  0
    7.5735    2.0760    0.0000 H   0  0  0  0  0  0  0  0  0  0  0  0
    7.5261    1.2005    0.0000 H   0  0  0  0  0  0  0  0  0  0  0  0
    6.2218   -3.4555    0.0000 H   0  0  0  0  0  0  0  0  0  0  0  0
    4.8188   -2.6455    0.0000 H   0  0  0  0  0  0  0  0  0  0  0  0
    3.3281   -2.6687    0.0000 H   0  0  0  0  0  0  0  0  0  0  0  0
    9.9277   -2.3725    0.0000 H   0  0  0  0  0  0  0  0  0  0  0  0
    9.9277   -1.2986    0.0000 H   0  0  0  0  0  0  0  0  0  0  0  0
    1.6440   -2.3092    0.0000 H   0  0  0  0  0  0  0  0  0  0  0  0
    6.2083   -0.0873    0.0000 H   0  0  0  0  0  0  0  0  0  0  0  0
    4.3308    1.9979    0.0000 H   0  0  0  0  0  0  0  0  0  0  0  0
    7.4122    0.9967    0.0000 H   0  0  0  0  0  0  0  0  0  0  0  0
    5.5347    3.0819    0.0000 H   0  0  0  0  0  0  0  0  0  0  0  0
  1  4  2  0  0  0  0
  1  5  2  0  0  0  0
  1  6  1  0  0  0  0
  1 11  1  0  0  0  0
  2 23  1  0  0  0  0
  2 26  1  0  0  0  0
  3 31  1  0  0  0  0
  6 12  1  0  0  0  0
  6 17  1  0  0  0  0
  7 16  1  0  0  0  0
  7 23  1  0  0  0  0
  7 25  1  0  0  0  0
  8 13  1  0  0  0  0
  8 17  2  0  0  0  0
  9 22  1  0  0  0  0
  9 23  2  0  0  0  0
 10 17  1  0  0  0  0
 10 43  1  0  0  0  0
 10 44  1  0  0  0  0
 11 18  1  0  0  0  0
 11 19  1  0  0  0  0
 11 32  1  0  0  0  0
 12 13  2  0  0  0  0
 12 15  1  0  0  0  0
 13 20  1  0  0  0  0
 14 15  2  0  0  0  0
 14 16  1  0  0  0  0
 14 21  1  0  0  0  0
 15 33  1  0  0  0  0
 16 22  2  0  0  0  0
 18 34  1  0  0  0  0
 18 35  1  0  0  0  0
 18 36  1  0  0  0  0
 19 37  1  0  0  0  0
 19 38  1  0  0  0  0
 19 39  1  0  0  0  0
 20 21  2  0  0  0  0
 20 40  1  0  0  0  0
 21 41  1  0  0  0  0
 22 24  1  0  0  0  0
 24 27  2  0  0  0  0
 24 28  1  0  0  0  0
 25 26  2  0  0  0  0
 25 42  1  0  0  0  0
 26 45  1  0  0  0  0
 27 29  1  0  0  0  0
 27 46  1  0  0  0  0
 28 30  2  0  0  0  0
 28 47  1  0  0  0  0
 29 31  2  0  0  0  0
 29 48  1  0  0  0  0
 30 31  1  0  0  0  0
 30 49  1  0  0  0  0
M  END
> <PUBCHEM_COMPOUND_CID>
24952850

> <PUBCHEM_COMPOUND_CANONICALIZED>
1

> <PUBCHEM_CACTVS_COMPLEXITY>
757

> <PUBCHEM_CACTVS_HBOND_ACCEPTOR>
7

> <PUBCHEM_CACTVS_HBOND_DONOR>
1

> <PUBCHEM_CACTVS_ROTATABLE_BOND>
4

> <PUBCHEM_CACTVS_SUBSKEYS>
AAADceB7sQBgAAAAAAAAAAAAAAAAAWLFgAAwYAAAAAAWAFgB/gAAHQQQQAAADAjFXgy/0bdMGAqkAzRnZHDC8K1xGrhJ2Cw4dJiIaOLAmZGUIAhogALIyCcQgMAOCAAAQAAAACAQAACAAAAAQAAAAAAAAA==

> <PUBCHEM_IUPAC_OPENEYE_NAME>
6-[6-(4-fluorophenyl)imidazo[2,1-b]thiazol-5-yl]-1-isopropylsulfonyl-benzimidazol-2-amine

> <PUBCHEM_IUPAC_CAS_NAME>
6-[6-(4-fluorophenyl)-5-imidazo[2,1-b]thiazolyl]-1-propan-2-ylsulfonyl-2-benzimidazolamine

> <PUBCHEM_IUPAC_NAME_MARKUP>
6-[6-(4-fluorophenyl)imidazo[2,1-b][1,3]thiazol-5-yl]-1-propan-2-ylsulfonylbenzimidazol-2-amine

> <PUBCHEM_IUPAC_NAME>
6-[6-(4-fluorophenyl)imidazo[2,1-b][1,3]thiazol-5-yl]-1-propan-2-ylsulfonylbenzimidazol-2-amine

> <PUBCHEM_IUPAC_SYSTEMATIC_NAME>
6-[6-(4-fluorophenyl)imidazo[2,1-b][1,3]thiazol-5-yl]-1-propan-2-ylsulfonyl-benzimidazol-2-amine

> <PUBCHEM_IUPAC_TRADITIONAL_NAME>
[6-[6-(4-fluorophenyl)imidazo[2,1-b]thiazol-5-yl]-1-isopropylsulfonyl-benzimidazol-2-yl]amine

> <PUBCHEM_IUPAC_INCHI>
InChI=1S/C21H18FN5O2S2/c1-12(2)31(28,29)27-17-11-14(5-8-16(17)24-20(27)23)19-18(13-3-6-15(22)7-4-13)25-21-26(19)9-10-30-21/h3-12H,1-2H3,(H2,23,24)

> <PUBCHEM_IUPAC_INCHIKEY>
HMBDNAGIIDHKKM-UHFFFAOYSA-N

> <PUBCHEM_XLOGP3_AA>
5.5

> <PUBCHEM_EXACT_MASS>
455.08859534

> <PUBCHEM_MOLECULAR_FORMULA>
C21H18FN5O2S2

> <PUBCHEM_MOLECULAR_WEIGHT>
455.5

> <PUBCHEM_SMILES>
CC(C)S(=O)(=O)N1C2=C(C=CC(=C2)C3=C(N=C4N3C=CS4)C5=CC=C(C=C5)F)N=C1N

> <PUBCHEM_OPENEYE_CAN_SMILES>
CC(C)S(=O)(=O)N1C2=C(C=CC(=C2)C3=C(N=C4N3C=CS4)C5=CC=C(C=C5)F)N=C1N

> <PUBCHEM_OPENEYE_ISO_SMILES>
CC(C)S(=O)(=O)N1C2=C(C=CC(=C2)C3=C(N=C4N3C=CS4)C5=CC=C(C=C5)F)N=C1N

> <PUBCHEM_CACTVS_TPSA>
132

> <PUBCHEM_MONOISOTOPIC_WEIGHT>
455.08859534

> <PUBCHEM_TOTAL_CHARGE>
0

> <PUBCHEM_HEAVY_ATOM_COUNT>
31

> <PUBCHEM_ATOM_DEF_STEREO_COUNT>
0

> <PUBCHEM_ATOM_UDEF_STEREO_COUNT>
0

> <PUBCHEM_BOND_DEF_STEREO_COUNT>
0

> <PUBCHEM_BOND_UDEF_STEREO_COUNT>
0

> <PUBCHEM_ISOTOPIC_ATOM_COUNT>
0

> <PUBCHEM_COMPONENT_COUNT>
1

> <PUBCHEM_CACTVS_TAUTO_COUNT>
-1

> <PUBCHEM_COORDINATE_TYPE>
1
5
255

> <PUBCHEM_BONDANNOTATIONS>
12  13  8
12  15  8
13  20  8
14  15  8
14  21  8
16  22  8
2  23  8
2  26  8
20  21  8
24  27  8
24  28  8
25  26  8
27  29  8
28  30  8
29  31  8
30  31  8
6  12  8
6  17  8
7  16  8
7  23  8
7  25  8
8  13  8
8  17  8
9  22  8
9  23  8

$$$$
