15605335
  -OEChem-03202502472D

 44 46  0     0  0  0  0  0  0999 V2000
    2.8660    4.2500    0.0000 Br  0  0  0  0  0  0  0  0  0  0  0  0
    9.7942    2.2500    0.0000 S   0  0  0  0  0  0  0  0  0  0  0  0
   10.2942    3.1160    0.0000 O   0  0  0  0  0  0  0  0  0  0  0  0
    9.2942    1.3840    0.0000 O   0  0  0  0  0  0  0  0  0  0  0  0
    2.8660   -1.7500    0.0000 O   0  0  0  0  0  0  0  0  0  0  0  0
    6.3301    2.2500    0.0000 N   0  0  0  0  0  0  0  0  0  0  0  0
    2.8660    2.2500    0.0000 N   0  0  0  0  0  0  0  0  0  0  0  0
    4.5981    2.2500    0.0000 N   0  0  0  0  0  0  0  0  0  0  0  0
   10.6603    1.7500    0.0000 N   0  0  0  0  0  0  0  0  0  0  0  0
    5.4641    3.7500    0.0000 N   0  0  0  0  0  0  0  0  0  0  0  0
    2.0000   -4.2500    0.0000 N   0  0  0  0  0  0  0  0  0  0  0  0
    8.9282    2.7500    0.0000 C   0  0  0  0  0  0  0  0  0  0  0  0
    7.1962    2.7500    0.0000 C   0  0  0  0  0  0  0  0  0  0  0  0
    8.0622    2.2500    0.0000 C   0  0  0  0  0  0  0  0  0  0  0  0
    8.9282    3.7500    0.0000 C   0  0  0  0  0  0  0  0  0  0  0  0
    7.1962    3.7500    0.0000 C   0  0  0  0  0  0  0  0  0  0  0  0
    8.0622    4.2500    0.0000 C   0  0  0  0  0  0  0  0  0  0  0  0
    2.8660    1.2500    0.0000 C   0  0  0  0  0  0  0  0  0  0  0  0
    5.4641    2.7500    0.0000 C   0  0  0  0  0  0  0  0  0  0  0  0
    3.7320    2.7500    0.0000 C   0  0  0  0  0  0  0  0  0  0  0  0
    2.0000    0.7500    0.0000 C   0  0  0  0  0  0  0  0  0  0  0  0
    3.7320    0.7500    0.0000 C   0  0  0  0  0  0  0  0  0  0  0  0
    2.8660   -0.7500    0.0000 C   0  0  0  0  0  0  0  0  0  0  0  0
    3.7320    3.7500    0.0000 C   0  0  0  0  0  0  0  0  0  0  0  0
    2.0000   -0.2500    0.0000 C   0  0  0  0  0  0  0  0  0  0  0  0
    3.7320   -0.2500    0.0000 C   0  0  0  0  0  0  0  0  0  0  0  0
    4.5981    4.2500    0.0000 C   0  0  0  0  0  0  0  0  0  0  0  0
    2.0000   -2.2500    0.0000 C   0  0  0  0  0  0  0  0  0  0  0  0
    2.0000   -3.2500    0.0000 C   0  0  0  0  0  0  0  0  0  0  0  0
    8.0622    1.6300    0.0000 H   0  0  0  0  0  0  0  0  0  0  0  0
    9.4651    4.0600    0.0000 H   0  0  0  0  0  0  0  0  0  0  0  0
    6.6592    4.0600    0.0000 H   0  0  0  0  0  0  0  0  0  0  0  0
    6.3301    1.6300    0.0000 H   0  0  0  0  0  0  0  0  0  0  0  0
    8.0622    4.8700    0.0000 H   0  0  0  0  0  0  0  0  0  0  0  0
    2.3291    2.5600    0.0000 H   0  0  0  0  0  0  0  0  0  0  0  0
    1.4631    1.0600    0.0000 H   0  0  0  0  0  0  0  0  0  0  0  0
    4.2690    1.0600    0.0000 H   0  0  0  0  0  0  0  0  0  0  0  0
    1.4631   -0.5600    0.0000 H   0  0  0  0  0  0  0  0  0  0  0  0
    4.2690   -0.5600    0.0000 H   0  0  0  0  0  0  0  0  0  0  0  0
   11.1972    2.0600    0.0000 H   0  0  0  0  0  0  0  0  0  0  0  0
   10.6603    1.1300    0.0000 H   0  0  0  0  0  0  0  0  0  0  0  0
    4.5981    4.8700    0.0000 H   0  0  0  0  0  0  0  0  0  0  0  0
    1.7880   -1.6674    0.0000 H   0  0  0  0  0  0  0  0  0  0  0  0
    1.3894   -2.3577    0.0000 H   0  0  0  0  0  0  0  0  0  0  0  0
  1 24  1  0  0  0  0
  2  3  2  0  0  0  0
  2  4  2  0  0  0  0
  2  9  1  0  0  0  0
  2 12  1  0  0  0  0
  5 23  1  0  0  0  0
  5 28  1  0  0  0  0
  6 13  1  0  0  0  0
  6 19  1  0  0  0  0
  6 33  1  0  0  0  0
  7 18  1  0  0  0  0
  7 20  1  0  0  0  0
  7 35  1  0  0  0  0
  8 19  1  0  0  0  0
  8 20  2  0  0  0  0
  9 40  1  0  0  0  0
  9 41  1  0  0  0  0
 10 19  2  0  0  0  0
 10 27  1  0  0  0  0
 11 29  3  0  0  0  0
 12 14  1  0  0  0  0
 12 15  2  0  0  0  0
 13 14  2  0  0  0  0
 13 16  1  0  0  0  0
 14 30  1  0  0  0  0
 15 17  1  0  0  0  0
 15 31  1  0  0  0  0
 16 17  2  0  0  0  0
 16 32  1  0  0  0  0
 17 34  1  0  0  0  0
 18 21  2  0  0  0  0
 18 22  1  0  0  0  0
 20 24  1  0  0  0  0
 21 25  1  0  0  0  0
 21 36  1  0  0  0  0
 22 26  2  0  0  0  0
 22 37  1  0  0  0  0
 23 25  2  0  0  0  0
 23 26  1  0  0  0  0
 24 27  2  0  0  0  0
 25 38  1  0  0  0  0
 26 39  1  0  0  0  0
 27 42  1  0  0  0  0
 28 29  1  0  0  0  0
 28 43  1  0  0  0  0
 28 44  1  0  0  0  0
M  END
> <PUBCHEM_COMPOUND_CID>
15605335

> <PUBCHEM_COMPOUND_CANONICALIZED>
1

> <PUBCHEM_CACTVS_COMPLEXITY>
673

> <PUBCHEM_CACTVS_HBOND_ACCEPTOR>
9

> <PUBCHEM_CACTVS_HBOND_DONOR>
3

> <PUBCHEM_CACTVS_ROTATABLE_BOND>
7

> <PUBCHEM_CACTVS_SUBSKEYS>
AAADccB7sABAEAAAAAAAAAAAAAAAAAAAAAA8YIAAAAAAAAAB0AAAHgRQQAABqAzh0gY995bIFAKwBDZnZHDCiDkxIqAJ2DgubJiMLuLE+duGPCzs0BPI6CewQAAAAEAAACAAAAAAgAAAQAAAAAAAAAAAAA==

> <PUBCHEM_IUPAC_OPENEYE_NAME>
3-[[5-bromo-4-[4-(cyanomethoxy)anilino]pyrimidin-2-yl]amino]benzenesulfonamide

> <PUBCHEM_IUPAC_CAS_NAME>
3-[[5-bromo-4-[4-(cyanomethoxy)anilino]-2-pyrimidinyl]amino]benzenesulfonamide

> <PUBCHEM_IUPAC_NAME_MARKUP>
3-[[5-bromo-4-[4-(cyanomethoxy)anilino]pyrimidin-2-yl]amino]benzenesulfonamide

> <PUBCHEM_IUPAC_NAME>
3-[[5-bromo-4-[4-(cyanomethoxy)anilino]pyrimidin-2-yl]amino]benzenesulfonamide

> <PUBCHEM_IUPAC_SYSTEMATIC_NAME>
3-[[5-bromanyl-4-[[4-(cyanomethoxy)phenyl]amino]pyrimidin-2-yl]amino]benzenesulfonamide

> <PUBCHEM_IUPAC_TRADITIONAL_NAME>
3-[[5-bromo-4-[4-(cyanomethoxy)anilino]pyrimidin-2-yl]amino]benzenesulfonamide

> <PUBCHEM_IUPAC_INCHI>
InChI=1S/C18H15BrN6O3S/c19-16-11-22-18(24-13-2-1-3-15(10-13)29(21,26)27)25-17(16)23-12-4-6-14(7-5-12)28-9-8-20/h1-7,10-11H,9H2,(H2,21,26,27)(H2,22,23,24,25)

> <PUBCHEM_IUPAC_INCHIKEY>
MVJMMLFMPWITEJ-UHFFFAOYSA-N

> <PUBCHEM_XLOGP3_AA>
3

> <PUBCHEM_EXACT_MASS>
474.01097

> <PUBCHEM_MOLECULAR_FORMULA>
C18H15BrN6O3S

> <PUBCHEM_MOLECULAR_WEIGHT>
475.3

> <PUBCHEM_SMILES>
C1=CC(=CC(=C1)S(=O)(=O)N)NC2=NC=C(C(=N2)NC3=CC=C(C=C3)OCC#N)Br

> <PUBCHEM_OPENEYE_CAN_SMILES>
C1=CC(=CC(=C1)S(=O)(=O)N)NC2=NC=C(C(=N2)NC3=CC=C(C=C3)OCC#N)Br

> <PUBCHEM_OPENEYE_ISO_SMILES>
C1=CC(=CC(=C1)S(=O)(=O)N)NC2=NC=C(C(=N2)NC3=CC=C(C=C3)OCC#N)Br

> <PUBCHEM_CACTVS_TPSA>
151

> <PUBCHEM_MONOISOTOPIC_WEIGHT>
474.01097

> <PUBCHEM_TOTAL_CHARGE>
0

> <PUBCHEM_HEAVY_ATOM_COUNT>
29

> <PUBCHEM_ATOM_DEF_STEREO_COUNT>
0

> <PUBCHEM_ATOM_UDEF_STEREO_COUNT>
0

> <PUBCHEM_BOND_DEF_STEREO_COUNT>
0

> <PUBCHEM_BOND_UDEF_STEREO_COUNT>
0

> <PUBCHEM_ISOTOPIC_ATOM_COUNT>
0

> <PUBCHEM_COMPONENT_COUNT>
1

> <PUBCHEM_CACTVS_TAUTO_COUNT>
-1

> <PUBCHEM_COORDINATE_TYPE>
1
5
255

> <PUBCHEM_BONDANNOTATIONS>
10  19  8
10  27  8
12  14  8
12  15  8
13  14  8
13  16  8
15  17  8
16  17  8
18  21  8
18  22  8
20  24  8
21  25  8
22  26  8
23  25  8
23  26  8
24  27  8
8  19  8
8  20  8

$$$$
