49830593
  -OEChem-03202502132D

 53 56  0     0  0  0  0  0  0999 V2000
    2.0000    1.0836    0.0000 F   0  0  0  0  0  0  0  0  0  0  0  0
    2.5655   -0.2126    0.0000 F   0  0  0  0  0  0  0  0  0  0  0  0
    3.8618    0.3529    0.0000 F   0  0  0  0  0  0  0  0  0  0  0  0
    5.8974    1.1654    0.0000 O   0  0  0  0  0  0  0  0  0  0  0  0
   10.7204   -2.9064    0.0000 N   0  0  0  0  0  0  0  0  0  0  0  0
   10.7204   -0.6595    0.0000 N   0  0  0  0  0  0  0  0  0  0  0  0
   12.3962   -2.8176    0.0000 N   0  0  0  0  0  0  0  0  0  0  0  0
    7.2515    2.2453    0.0000 N   0  0  0  0  0  0  0  0  0  0  0  0
   12.3846    0.2516    0.0000 N   0  0  0  0  0  0  0  0  0  0  0  0
   13.3023   -1.2622    0.0000 N   0  0  0  0  0  0  0  0  0  0  0  0
    5.6392    2.8781    0.0000 N   0  0  0  0  0  0  0  0  0  0  0  0
    9.3116   -1.7830    0.0000 C   0  0  0  0  0  0  0  0  0  0  0  0
    9.7455   -2.6839    0.0000 C   0  0  0  0  0  0  0  0  0  0  0  0
    9.7455   -0.8820    0.0000 C   0  0  0  0  0  0  0  0  0  0  0  0
    9.1220   -0.1002    0.0000 C   0  0  0  0  0  0  0  0  0  0  0  0
   11.5023   -1.2830    0.0000 C   0  0  0  0  0  0  0  0  0  0  0  0
   11.5023   -2.2830    0.0000 C   0  0  0  0  0  0  0  0  0  0  0  0
    9.4874    0.8307    0.0000 C   0  0  0  0  0  0  0  0  0  0  0  0
    8.1332   -0.2492    0.0000 C   0  0  0  0  0  0  0  0  0  0  0  0
   12.3962   -0.7483    0.0000 C   0  0  0  0  0  0  0  0  0  0  0  0
    7.8750    1.4635    0.0000 C   0  0  0  0  0  0  0  0  0  0  0  0
    8.8639    1.6125    0.0000 C   0  0  0  0  0  0  0  0  0  0  0  0
    7.5097    0.5326    0.0000 C   0  0  0  0  0  0  0  0  0  0  0  0
   13.3023   -2.3038    0.0000 C   0  0  0  0  0  0  0  0  0  0  0  0
    4.6504    2.7291    0.0000 C   0  0  0  0  0  0  0  0  0  0  0  0
    6.2627    2.0963    0.0000 C   0  0  0  0  0  0  0  0  0  0  0  0
    3.2962    1.6492    0.0000 C   0  0  0  0  0  0  0  0  0  0  0  0
    4.2850    1.7982    0.0000 C   0  0  0  0  0  0  0  0  0  0  0  0
   13.2448    0.7616    0.0000 C   0  0  0  0  0  0  0  0  0  0  0  0
    4.0269    3.5109    0.0000 C   0  0  0  0  0  0  0  0  0  0  0  0
    2.6727    2.4310    0.0000 C   0  0  0  0  0  0  0  0  0  0  0  0
    3.0381    3.3619    0.0000 C   0  0  0  0  0  0  0  0  0  0  0  0
    2.9309    0.7183    0.0000 C   0  0  0  0  0  0  0  0  0  0  0  0
    8.8269   -1.3964    0.0000 H   0  0  0  0  0  0  0  0  0  0  0  0
    8.8269   -2.1695    0.0000 H   0  0  0  0  0  0  0  0  0  0  0  0
    9.1410   -2.8219    0.0000 H   0  0  0  0  0  0  0  0  0  0  0  0
    9.7455   -3.3039    0.0000 H   0  0  0  0  0  0  0  0  0  0  0  0
   10.8584   -3.5109    0.0000 H   0  0  0  0  0  0  0  0  0  0  0  0
   10.1004    0.9231    0.0000 H   0  0  0  0  0  0  0  0  0  0  0  0
    7.9067   -0.8263    0.0000 H   0  0  0  0  0  0  0  0  0  0  0  0
    9.0904    2.1897    0.0000 H   0  0  0  0  0  0  0  0  0  0  0  0
    6.8966    0.4402    0.0000 H   0  0  0  0  0  0  0  0  0  0  0  0
    7.4780    2.8225    0.0000 H   0  0  0  0  0  0  0  0  0  0  0  0
   11.8442    0.5554    0.0000 H   0  0  0  0  0  0  0  0  0  0  0  0
   13.8380   -2.6158    0.0000 H   0  0  0  0  0  0  0  0  0  0  0  0
    5.8657    3.4553    0.0000 H   0  0  0  0  0  0  0  0  0  0  0  0
    4.6716    1.3135    0.0000 H   0  0  0  0  0  0  0  0  0  0  0  0
   13.5610    0.2283    0.0000 H   0  0  0  0  0  0  0  0  0  0  0  0
   13.7781    1.0778    0.0000 H   0  0  0  0  0  0  0  0  0  0  0  0
   12.9286    1.2949    0.0000 H   0  0  0  0  0  0  0  0  0  0  0  0
    4.2534    4.0880    0.0000 H   0  0  0  0  0  0  0  0  0  0  0  0
    2.0596    2.3386    0.0000 H   0  0  0  0  0  0  0  0  0  0  0  0
    2.6515    3.8466    0.0000 H   0  0  0  0  0  0  0  0  0  0  0  0
  1 33  1  0  0  0  0
  2 33  1  0  0  0  0
  3 33  1  0  0  0  0
  4 26  2  0  0  0  0
  5 13  1  0  0  0  0
  5 17  1  0  0  0  0
  5 38  1  0  0  0  0
  6 14  2  0  0  0  0
  6 16  1  0  0  0  0
  7 17  1  0  0  0  0
  7 24  2  0  0  0  0
  8 21  1  0  0  0  0
  8 26  1  0  0  0  0
  8 43  1  0  0  0  0
  9 20  1  0  0  0  0
  9 29  1  0  0  0  0
  9 44  1  0  0  0  0
 10 20  2  0  0  0  0
 10 24  1  0  0  0  0
 11 25  1  0  0  0  0
 11 26  1  0  0  0  0
 11 46  1  0  0  0  0
 12 13  1  0  0  0  0
 12 14  1  0  0  0  0
 12 34  1  0  0  0  0
 12 35  1  0  0  0  0
 13 36  1  0  0  0  0
 13 37  1  0  0  0  0
 14 15  1  0  0  0  0
 15 18  2  0  0  0  0
 15 19  1  0  0  0  0
 16 17  2  0  0  0  0
 16 20  1  0  0  0  0
 18 22  1  0  0  0  0
 18 39  1  0  0  0  0
 19 23  2  0  0  0  0
 19 40  1  0  0  0  0
 21 22  2  0  0  0  0
 21 23  1  0  0  0  0
 22 41  1  0  0  0  0
 23 42  1  0  0  0  0
 24 45  1  0  0  0  0
 25 28  1  0  0  0  0
 25 30  2  0  0  0  0
 27 28  2  0  0  0  0
 27 31  1  0  0  0  0
 27 33  1  0  0  0  0
 28 47  1  0  0  0  0
 29 48  1  0  0  0  0
 29 49  1  0  0  0  0
 29 50  1  0  0  0  0
 30 32  1  0  0  0  0
 30 51  1  0  0  0  0
 31 32  2  0  0  0  0
 31 52  1  0  0  0  0
 32 53  1  0  0  0  0
M  END
> <PUBCHEM_COMPOUND_CID>
49830593

> <PUBCHEM_COMPOUND_CANONICALIZED>
1

> <PUBCHEM_CACTVS_COMPLEXITY>
696

> <PUBCHEM_CACTVS_HBOND_ACCEPTOR>
9

> <PUBCHEM_CACTVS_HBOND_DONOR>
4

> <PUBCHEM_CACTVS_ROTATABLE_BOND>
4

> <PUBCHEM_CACTVS_SUBSKEYS>
AAADceB7oYAAAAAAAAAAAAAAAAAAAAAAAAA8YIAABAAAAAAB0AAAHwAQAAAADAjBGhQ38JbIEACoAyZjdACCgCkxEqAJ2KA4dJiIaKLA2dGUJAholALIyCcQgIAOCAAAQAAAAAAQAACAAAAAAAAAAAAAAA==

> <PUBCHEM_IUPAC_OPENEYE_NAME>
1-[4-[4-(methylamino)-8,9-dihydro-7H-pyrimido[4,5-b][1,4]diazepin-6-yl]phenyl]-3-[3-(trifluoromethyl)phenyl]urea

> <PUBCHEM_IUPAC_CAS_NAME>
1-[4-[4-(methylamino)-8,9-dihydro-7H-pyrimido[4,5-b][1,4]diazepin-6-yl]phenyl]-3-[3-(trifluoromethyl)phenyl]urea

> <PUBCHEM_IUPAC_NAME_MARKUP>
1-[4-[4-(methylamino)-8,9-dihydro-7<I>H</I>-pyrimido[4,5-b][1,4]diazepin-6-yl]phenyl]-3-[3-(trifluoromethyl)phenyl]urea

> <PUBCHEM_IUPAC_NAME>
1-[4-[4-(methylamino)-8,9-dihydro-7H-pyrimido[4,5-b][1,4]diazepin-6-yl]phenyl]-3-[3-(trifluoromethyl)phenyl]urea

> <PUBCHEM_IUPAC_SYSTEMATIC_NAME>
1-[4-[4-(methylamino)-8,9-dihydro-7H-pyrimido[4,5-b][1,4]diazepin-6-yl]phenyl]-3-[3-(trifluoromethyl)phenyl]urea

> <PUBCHEM_IUPAC_TRADITIONAL_NAME>
1-[4-[4-(methylamino)-8,9-dihydro-7H-pyrimido[4,5-b][1,4]diazepin-6-yl]phenyl]-3-[3-(trifluoromethyl)phenyl]urea

> <PUBCHEM_IUPAC_INCHI>
InChI=1S/C22H20F3N7O/c1-26-19-18-20(29-12-28-19)27-10-9-17(32-18)13-5-7-15(8-6-13)30-21(33)31-16-4-2-3-14(11-16)22(23,24)25/h2-8,11-12H,9-10H2,1H3,(H2,30,31,33)(H2,26,27,28,29)

> <PUBCHEM_IUPAC_INCHIKEY>
XAYDUCQADQTDGX-UHFFFAOYSA-N

> <PUBCHEM_XLOGP3_AA>
3.4

> <PUBCHEM_EXACT_MASS>
455.16814277

> <PUBCHEM_MOLECULAR_FORMULA>
C22H20F3N7O

> <PUBCHEM_MOLECULAR_WEIGHT>
455.4

> <PUBCHEM_SMILES>
CNC1=NC=NC2=C1N=C(CCN2)C3=CC=C(C=C3)NC(=O)NC4=CC=CC(=C4)C(F)(F)F

> <PUBCHEM_OPENEYE_CAN_SMILES>
CNC1=NC=NC2=C1N=C(CCN2)C3=CC=C(C=C3)NC(=O)NC4=CC=CC(=C4)C(F)(F)F

> <PUBCHEM_OPENEYE_ISO_SMILES>
CNC1=NC=NC2=C1N=C(CCN2)C3=CC=C(C=C3)NC(=O)NC4=CC=CC(=C4)C(F)(F)F

> <PUBCHEM_CACTVS_TPSA>
103

> <PUBCHEM_MONOISOTOPIC_WEIGHT>
455.16814277

> <PUBCHEM_TOTAL_CHARGE>
0

> <PUBCHEM_HEAVY_ATOM_COUNT>
33

> <PUBCHEM_ATOM_DEF_STEREO_COUNT>
0

> <PUBCHEM_ATOM_UDEF_STEREO_COUNT>
0

> <PUBCHEM_BOND_DEF_STEREO_COUNT>
0

> <PUBCHEM_BOND_UDEF_STEREO_COUNT>
0

> <PUBCHEM_ISOTOPIC_ATOM_COUNT>
0

> <PUBCHEM_COMPONENT_COUNT>
1

> <PUBCHEM_CACTVS_TAUTO_COUNT>
-1

> <PUBCHEM_COORDINATE_TYPE>
1
5
255

> <PUBCHEM_BONDANNOTATIONS>
10  20  8
10  24  8
15  18  8
15  19  8
16  17  8
16  20  8
18  22  8
19  23  8
21  22  8
21  23  8
25  28  8
25  30  8
27  28  8
27  31  8
30  32  8
31  32  8
7  17  8
7  24  8

$$$$
