25002232
  -OEChem-03202502432D

 58 62  0     0  0  0  0  0  0999 V2000
    8.9282   -0.7500    0.0000 F   0  0  0  0  0  0  0  0  0  0  0  0
    8.0622   -2.2500    0.0000 O   0  0  0  0  0  0  0  0  0  0  0  0
    5.4641    5.2500    0.0000 O   0  0  0  0  0  0  0  0  0  0  0  0
    6.3301   -2.2500    0.0000 N   0  0  0  0  0  0  0  0  0  0  0  0
    4.5981   -3.2500    0.0000 N   0  0  0  0  0  0  0  0  0  0  0  0
    6.3301    2.7500    0.0000 N   0  0  0  0  0  0  0  0  0  0  0  0
    6.3301    3.7500    0.0000 N   0  0  0  0  0  0  0  0  0  0  0  0
    2.8660   -3.2500    0.0000 N   0  0  0  0  0  0  0  0  0  0  0  0
    3.7320   -4.7500    0.0000 N   0  0  0  0  0  0  0  0  0  0  0  0
    3.7041    2.2153    0.0000 C   0  0  0  0  0  0  0  0  0  0  0  0
    2.7981    2.7292    0.0000 C   0  0  0  0  0  0  0  0  0  0  0  0
    4.5981    2.7500    0.0000 C   0  0  0  0  0  0  0  0  0  0  0  0
    2.7981    3.7708    0.0000 C   0  0  0  0  0  0  0  0  0  0  0  0
    3.7041    4.2847    0.0000 C   0  0  0  0  0  0  0  0  0  0  0  0
    4.5981    3.7500    0.0000 C   0  0  0  0  0  0  0  0  0  0  0  0
    6.3301   -3.2500    0.0000 C   0  0  0  0  0  0  0  0  0  0  0  0
    5.4641   -1.7500    0.0000 C   0  0  0  0  0  0  0  0  0  0  0  0
    5.4641   -3.7500    0.0000 C   0  0  0  0  0  0  0  0  0  0  0  0
    4.5981   -2.2500    0.0000 C   0  0  0  0  0  0  0  0  0  0  0  0
    5.4641    2.2500    0.0000 C   0  0  0  0  0  0  0  0  0  0  0  0
    5.4641    1.2500    0.0000 C   0  0  0  0  0  0  0  0  0  0  0  0
    5.4641    4.2500    0.0000 C   0  0  0  0  0  0  0  0  0  0  0  0
    7.1962   -1.7500    0.0000 C   0  0  0  0  0  0  0  0  0  0  0  0
    6.3301    0.7500    0.0000 C   0  0  0  0  0  0  0  0  0  0  0  0
    7.1962   -0.7500    0.0000 C   0  0  0  0  0  0  0  0  0  0  0  0
    3.7320   -3.7500    0.0000 C   0  0  0  0  0  0  0  0  0  0  0  0
    6.3301   -0.2500    0.0000 C   0  0  0  0  0  0  0  0  0  0  0  0
    7.1962    1.2500    0.0000 C   0  0  0  0  0  0  0  0  0  0  0  0
    8.0622   -0.2500    0.0000 C   0  0  0  0  0  0  0  0  0  0  0  0
    8.0622    0.7500    0.0000 C   0  0  0  0  0  0  0  0  0  0  0  0
    2.0000   -3.7500    0.0000 C   0  0  0  0  0  0  0  0  0  0  0  0
    2.8660   -5.2500    0.0000 C   0  0  0  0  0  0  0  0  0  0  0  0
    2.0000   -4.7500    0.0000 C   0  0  0  0  0  0  0  0  0  0  0  0
    3.3105    1.7363    0.0000 H   0  0  0  0  0  0  0  0  0  0  0  0
    4.1087    1.7456    0.0000 H   0  0  0  0  0  0  0  0  0  0  0  0
    2.1872    2.8353    0.0000 H   0  0  0  0  0  0  0  0  0  0  0  0
    2.5890    2.1455    0.0000 H   0  0  0  0  0  0  0  0  0  0  0  0
    2.5890    4.3545    0.0000 H   0  0  0  0  0  0  0  0  0  0  0  0
    2.1872    3.6647    0.0000 H   0  0  0  0  0  0  0  0  0  0  0  0
    4.1087    4.7544    0.0000 H   0  0  0  0  0  0  0  0  0  0  0  0
    3.3105    4.7637    0.0000 H   0  0  0  0  0  0  0  0  0  0  0  0
    6.5422   -3.8326    0.0000 H   0  0  0  0  0  0  0  0  0  0  0  0
    6.9407   -3.1423    0.0000 H   0  0  0  0  0  0  0  0  0  0  0  0
    5.8626   -1.2750    0.0000 H   0  0  0  0  0  0  0  0  0  0  0  0
    5.0656   -1.2750    0.0000 H   0  0  0  0  0  0  0  0  0  0  0  0
    5.0656   -4.2250    0.0000 H   0  0  0  0  0  0  0  0  0  0  0  0
    5.8626   -4.2250    0.0000 H   0  0  0  0  0  0  0  0  0  0  0  0
    4.3860   -1.6674    0.0000 H   0  0  0  0  0  0  0  0  0  0  0  0
    3.9875   -2.3577    0.0000 H   0  0  0  0  0  0  0  0  0  0  0  0
    4.8535    1.3577    0.0000 H   0  0  0  0  0  0  0  0  0  0  0  0
    5.2520    0.6674    0.0000 H   0  0  0  0  0  0  0  0  0  0  0  0
    5.7932   -0.5600    0.0000 H   0  0  0  0  0  0  0  0  0  0  0  0
    6.8671    4.0600    0.0000 H   0  0  0  0  0  0  0  0  0  0  0  0
    7.1962    1.8700    0.0000 H   0  0  0  0  0  0  0  0  0  0  0  0
    8.5991    1.0600    0.0000 H   0  0  0  0  0  0  0  0  0  0  0  0
    1.4631   -3.4400    0.0000 H   0  0  0  0  0  0  0  0  0  0  0  0
    2.8660   -5.8700    0.0000 H   0  0  0  0  0  0  0  0  0  0  0  0
    1.4631   -5.0600    0.0000 H   0  0  0  0  0  0  0  0  0  0  0  0
  1 29  1  0  0  0  0
  2 23  2  0  0  0  0
  3 22  2  0  0  0  0
  4 16  1  0  0  0  0
  4 17  1  0  0  0  0
  4 23  1  0  0  0  0
  5 18  1  0  0  0  0
  5 19  1  0  0  0  0
  5 26  1  0  0  0  0
  6  7  1  0  0  0  0
  6 20  2  0  0  0  0
  7 22  1  0  0  0  0
  7 53  1  0  0  0  0
  8 26  2  0  0  0  0
  8 31  1  0  0  0  0
  9 26  1  0  0  0  0
  9 32  2  0  0  0  0
 10 11  1  0  0  0  0
 10 12  1  0  0  0  0
 10 34  1  0  0  0  0
 10 35  1  0  0  0  0
 11 13  1  0  0  0  0
 11 36  1  0  0  0  0
 11 37  1  0  0  0  0
 12 15  2  0  0  0  0
 12 20  1  0  0  0  0
 13 14  1  0  0  0  0
 13 38  1  0  0  0  0
 13 39  1  0  0  0  0
 14 15  1  0  0  0  0
 14 40  1  0  0  0  0
 14 41  1  0  0  0  0
 15 22  1  0  0  0  0
 16 18  1  0  0  0  0
 16 42  1  0  0  0  0
 16 43  1  0  0  0  0
 17 19  1  0  0  0  0
 17 44  1  0  0  0  0
 17 45  1  0  0  0  0
 18 46  1  0  0  0  0
 18 47  1  0  0  0  0
 19 48  1  0  0  0  0
 19 49  1  0  0  0  0
 20 21  1  0  0  0  0
 21 24  1  0  0  0  0
 21 50  1  0  0  0  0
 21 51  1  0  0  0  0
 23 25  1  0  0  0  0
 24 27  2  0  0  0  0
 24 28  1  0  0  0  0
 25 27  1  0  0  0  0
 25 29  2  0  0  0  0
 27 52  1  0  0  0  0
 28 30  2  0  0  0  0
 28 54  1  0  0  0  0
 29 30  1  0  0  0  0
 30 55  1  0  0  0  0
 31 33  2  0  0  0  0
 31 56  1  0  0  0  0
 32 33  1  0  0  0  0
 32 57  1  0  0  0  0
 33 58  1  0  0  0  0
M  END
> <PUBCHEM_COMPOUND_CID>
25002232

> <PUBCHEM_COMPOUND_CANONICALIZED>
1

> <PUBCHEM_CACTVS_COMPLEXITY>
816

> <PUBCHEM_CACTVS_HBOND_ACCEPTOR>
7

> <PUBCHEM_CACTVS_HBOND_DONOR>
1

> <PUBCHEM_CACTVS_ROTATABLE_BOND>
4

> <PUBCHEM_CACTVS_SUBSKEYS>
AAADceB7sQAAAAAAAAAAAAAAAAAAAAAAAAA8WIECAAAAAACBwAAAHwAYAAAADAjBmgw9kJdqEACoAzF3dACSgCk1AqAb2CE4ZNiIaLLA3VGUJQhojgLIiacYiMCOAAACAAAAAAAAAAQAAAAAAAAAAAAAAA==

> <PUBCHEM_IUPAC_OPENEYE_NAME>
4-[[4-fluoro-3-(4-pyrimidin-2-ylpiperazine-1-carbonyl)phenyl]methyl]-5,6,7,8-tetrahydro-2H-phthalazin-1-one

> <PUBCHEM_IUPAC_CAS_NAME>
4-[[4-fluoro-3-[oxo-[4-(2-pyrimidinyl)-1-piperazinyl]methyl]phenyl]methyl]-5,6,7,8-tetrahydro-2H-phthalazin-1-one

> <PUBCHEM_IUPAC_NAME_MARKUP>
4-[[4-fluoro-3-(4-pyrimidin-2-ylpiperazine-1-carbonyl)phenyl]methyl]-5,6,7,8-tetrahydro-2<I>H</I>-phthalazin-1-one

> <PUBCHEM_IUPAC_NAME>
4-[[4-fluoro-3-(4-pyrimidin-2-ylpiperazine-1-carbonyl)phenyl]methyl]-5,6,7,8-tetrahydro-2H-phthalazin-1-one

> <PUBCHEM_IUPAC_SYSTEMATIC_NAME>
4-[[4-fluoranyl-3-(4-pyrimidin-2-ylpiperazin-1-yl)carbonyl-phenyl]methyl]-5,6,7,8-tetrahydro-2H-phthalazin-1-one

> <PUBCHEM_IUPAC_TRADITIONAL_NAME>
4-[4-fluoro-3-[4-(2-pyrimidyl)piperazine-1-carbonyl]benzyl]-5,6,7,8-tetrahydro-2H-phthalazin-1-one

> <PUBCHEM_IUPAC_INCHI>
InChI=1S/C24H25FN6O2/c25-20-7-6-16(15-21-17-4-1-2-5-18(17)22(32)29-28-21)14-19(20)23(33)30-10-12-31(13-11-30)24-26-8-3-9-27-24/h3,6-9,14H,1-2,4-5,10-13,15H2,(H,29,32)

> <PUBCHEM_IUPAC_INCHIKEY>
KIUHBHFVVQQALF-UHFFFAOYSA-N

> <PUBCHEM_XLOGP3_AA>
2.4

> <PUBCHEM_EXACT_MASS>
448.20230222

> <PUBCHEM_MOLECULAR_FORMULA>
C24H25FN6O2

> <PUBCHEM_MOLECULAR_WEIGHT>
448.5

> <PUBCHEM_SMILES>
C1CCC2=C(C1)C(=NNC2=O)CC3=CC(=C(C=C3)F)C(=O)N4CCN(CC4)C5=NC=CC=N5

> <PUBCHEM_OPENEYE_CAN_SMILES>
C1CCC2=C(C1)C(=NNC2=O)CC3=CC(=C(C=C3)F)C(=O)N4CCN(CC4)C5=NC=CC=N5

> <PUBCHEM_OPENEYE_ISO_SMILES>
C1CCC2=C(C1)C(=NNC2=O)CC3=CC(=C(C=C3)F)C(=O)N4CCN(CC4)C5=NC=CC=N5

> <PUBCHEM_CACTVS_TPSA>
90.8

> <PUBCHEM_MONOISOTOPIC_WEIGHT>
448.20230222

> <PUBCHEM_TOTAL_CHARGE>
0

> <PUBCHEM_HEAVY_ATOM_COUNT>
33

> <PUBCHEM_ATOM_DEF_STEREO_COUNT>
0

> <PUBCHEM_ATOM_UDEF_STEREO_COUNT>
0

> <PUBCHEM_BOND_DEF_STEREO_COUNT>
0

> <PUBCHEM_BOND_UDEF_STEREO_COUNT>
0

> <PUBCHEM_ISOTOPIC_ATOM_COUNT>
0

> <PUBCHEM_COMPONENT_COUNT>
1

> <PUBCHEM_CACTVS_TAUTO_COUNT>
-1

> <PUBCHEM_COORDINATE_TYPE>
1
5
255

> <PUBCHEM_BONDANNOTATIONS>
12  15  8
12  20  8
15  22  8
24  27  8
24  28  8
25  27  8
25  29  8
28  30  8
29  30  8
31  33  8
32  33  8
6  20  8
6  7  8
7  22  8
8  26  8
8  31  8
9  26  8
9  32  8

$$$$
