136027071
  -OEChem-03202502182D

 25 27  0     0  0  0  0  0  0999 V2000
    3.4030    2.0000    0.0000 I   0  0  0  0  0  0  0  0  0  0  0  0
    8.7988   -1.7320    0.0000 Cl  0  0  0  0  0  0  0  0  0  0  0  0
    3.4030   -2.0000    0.0000 O   0  0  0  0  0  0  0  0  0  0  0  0
    4.2690   -0.5000    0.0000 N   0  0  0  0  0  0  0  0  0  0  0  0
    5.2152    0.8047    0.0000 N   0  0  0  0  0  0  0  0  0  0  0  0
    2.5369   -0.5000    0.0000 N   0  0  0  0  0  0  0  0  0  0  0  0
    4.2690    0.5000    0.0000 C   0  0  0  0  0  0  0  0  0  0  0  0
    5.7988    0.0000    0.0000 C   0  0  0  0  0  0  0  0  0  0  0  0
    5.2152   -0.8047    0.0000 C   0  0  0  0  0  0  0  0  0  0  0  0
    6.7988   -0.0000    0.0000 C   0  0  0  0  0  0  0  0  0  0  0  0
    3.4030   -1.0000    0.0000 C   0  0  0  0  0  0  0  0  0  0  0  0
    3.4030    1.0000    0.0000 C   0  0  0  0  0  0  0  0  0  0  0  0
    2.5369    0.5000    0.0000 C   0  0  0  0  0  0  0  0  0  0  0  0
    7.2988   -0.8660    0.0000 C   0  0  0  0  0  0  0  0  0  0  0  0
    7.2988    0.8660    0.0000 C   0  0  0  0  0  0  0  0  0  0  0  0
    8.2988   -0.8660    0.0000 C   0  0  0  0  0  0  0  0  0  0  0  0
    8.2988    0.8660    0.0000 C   0  0  0  0  0  0  0  0  0  0  0  0
    8.7988   -0.0000    0.0000 C   0  0  0  0  0  0  0  0  0  0  0  0
    5.4078   -1.3940    0.0000 H   0  0  0  0  0  0  0  0  0  0  0  0
    2.0000   -0.8100    0.0000 H   0  0  0  0  0  0  0  0  0  0  0  0
    2.0000    0.8100    0.0000 H   0  0  0  0  0  0  0  0  0  0  0  0
    6.9888   -1.4030    0.0000 H   0  0  0  0  0  0  0  0  0  0  0  0
    6.9888    1.4030    0.0000 H   0  0  0  0  0  0  0  0  0  0  0  0
    8.6088    1.4030    0.0000 H   0  0  0  0  0  0  0  0  0  0  0  0
    9.4188   -0.0000    0.0000 H   0  0  0  0  0  0  0  0  0  0  0  0
  1 12  1  0  0  0  0
  2 16  1  0  0  0  0
  3 11  2  0  0  0  0
  4  7  1  0  0  0  0
  4  9  1  0  0  0  0
  4 11  1  0  0  0  0
  5  7  2  0  0  0  0
  5  8  1  0  0  0  0
  6 11  1  0  0  0  0
  6 13  1  0  0  0  0
  6 20  1  0  0  0  0
  7 12  1  0  0  0  0
  8  9  2  0  0  0  0
  8 10  1  0  0  0  0
  9 19  1  0  0  0  0
 10 14  2  0  0  0  0
 10 15  1  0  0  0  0
 12 13  2  0  0  0  0
 13 21  1  0  0  0  0
 14 16  1  0  0  0  0
 14 22  1  0  0  0  0
 15 17  2  0  0  0  0
 15 23  1  0  0  0  0
 16 18  2  0  0  0  0
 17 18  1  0  0  0  0
 17 24  1  0  0  0  0
 18 25  1  0  0  0  0
M  END
> <PUBCHEM_COMPOUND_CID>
136027071

> <PUBCHEM_COMPOUND_CANONICALIZED>
1

> <PUBCHEM_CACTVS_COMPLEXITY>
390

> <PUBCHEM_CACTVS_HBOND_ACCEPTOR>
2

> <PUBCHEM_CACTVS_HBOND_DONOR>
1

> <PUBCHEM_CACTVS_ROTATABLE_BOND>
1

> <PUBCHEM_CACTVS_SUBSKEYS>
AAADcYBzIAAEAgAAAAAAAAAAAAAAAWAAAAAwQAAAAAAAAEABwAAAHgIwAAAADArDHyQ9kJfMEACoAzZndACCgC0xF6AJ2KA4dpiIaKLBmxGUIAhohwLIyCcQgIAOAAAAIAAAAAAAAABAAAAAAAAAAAAAAA==

> <PUBCHEM_IUPAC_OPENEYE_NAME>
2-(3-chlorophenyl)-8-iodo-6H-imidazo[1,2-c]pyrimidin-5-one

> <PUBCHEM_IUPAC_CAS_NAME>
2-(3-chlorophenyl)-8-iodo-6H-imidazo[1,2-c]pyrimidin-5-one

> <PUBCHEM_IUPAC_NAME_MARKUP>
2-(3-chlorophenyl)-8-iodo-6<I>H</I>-imidazo[1,2-c]pyrimidin-5-one

> <PUBCHEM_IUPAC_NAME>
2-(3-chlorophenyl)-8-iodo-6H-imidazo[1,2-c]pyrimidin-5-one

> <PUBCHEM_IUPAC_SYSTEMATIC_NAME>
2-(3-chlorophenyl)-8-iodanyl-6H-imidazo[1,2-c]pyrimidin-5-one

> <PUBCHEM_IUPAC_TRADITIONAL_NAME>
2-(3-chlorophenyl)-8-iodo-6H-imidazo[1,2-c]pyrimidin-5-one

> <PUBCHEM_IUPAC_INCHI>
InChI=1S/C12H7ClIN3O/c13-8-3-1-2-7(4-8)10-6-17-11(16-10)9(14)5-15-12(17)18/h1-6H,(H,15,18)

> <PUBCHEM_IUPAC_INCHIKEY>
UPPYTUNUGKDPSA-UHFFFAOYSA-N

> <PUBCHEM_XLOGP3_AA>
2.4

> <PUBCHEM_EXACT_MASS>
370.93224

> <PUBCHEM_MOLECULAR_FORMULA>
C12H7ClIN3O

> <PUBCHEM_MOLECULAR_WEIGHT>
371.56

> <PUBCHEM_SMILES>
C1=CC(=CC(=C1)Cl)C2=CN3C(=N2)C(=CNC3=O)I

> <PUBCHEM_OPENEYE_CAN_SMILES>
C1=CC(=CC(=C1)Cl)C2=CN3C(=N2)C(=CNC3=O)I

> <PUBCHEM_OPENEYE_ISO_SMILES>
C1=CC(=CC(=C1)Cl)C2=CN3C(=N2)C(=CNC3=O)I

> <PUBCHEM_CACTVS_TPSA>
46.9

> <PUBCHEM_MONOISOTOPIC_WEIGHT>
370.93224

> <PUBCHEM_TOTAL_CHARGE>
0

> <PUBCHEM_HEAVY_ATOM_COUNT>
18

> <PUBCHEM_ATOM_DEF_STEREO_COUNT>
0

> <PUBCHEM_ATOM_UDEF_STEREO_COUNT>
0

> <PUBCHEM_BOND_DEF_STEREO_COUNT>
0

> <PUBCHEM_BOND_UDEF_STEREO_COUNT>
0

> <PUBCHEM_ISOTOPIC_ATOM_COUNT>
0

> <PUBCHEM_COMPONENT_COUNT>
1

> <PUBCHEM_CACTVS_TAUTO_COUNT>
-1

> <PUBCHEM_COORDINATE_TYPE>
1
5
255

> <PUBCHEM_BONDANNOTATIONS>
10  14  8
10  15  8
12  13  8
14  16  8
15  17  8
16  18  8
17  18  8
4  11  8
4  7  8
4  9  8
5  7  8
5  8  8
6  11  8
6  13  8
7  12  8
8  9  8

$$$$
