11442386
  -OEChem-03202503052D

 65 70  0     0  0  0  0  0  0999 V2000
    4.0035   -2.9869    0.0000 O   0  0  0  0  0  0  0  0  0  0  0  0
    6.7571    5.4637    0.0000 N   0  0  0  0  0  0  0  0  0  0  0  0
    3.7717    1.7075    0.0000 N   0  0  0  0  0  0  0  0  0  0  0  0
    5.3015    1.2075    0.0000 N   0  0  0  0  0  0  0  0  0  0  0  0
    2.0396    0.7075    0.0000 N   0  0  0  0  0  0  0  0  0  0  0  0
    2.9056   -0.7925    0.0000 N   0  0  0  0  0  0  0  0  0  0  0  0
    5.4679    4.3070    0.0000 C   0  0  0  0  0  0  0  0  0  0  0  0
    5.0286    2.9627    0.0000 C   0  0  0  0  0  0  0  0  0  0  0  0
    4.5761    3.8545    0.0000 C   0  0  0  0  0  0  0  0  0  0  0  0
    5.9204    3.4152    0.0000 C   0  0  0  0  0  0  0  0  0  0  0  0
    5.7786    5.2575    0.0000 C   0  0  0  0  0  0  0  0  0  0  0  0
    4.7179    2.0122    0.0000 C   0  0  0  0  0  0  0  0  0  0  0  0
    7.4990    4.7933    0.0000 C   0  0  0  0  0  0  0  0  0  0  0  0
    7.1654    6.3766    0.0000 C   0  0  0  0  0  0  0  0  0  0  0  0
    8.3659    5.2918    0.0000 C   0  0  0  0  0  0  0  0  0  0  0  0
    8.1597    6.2703    0.0000 C   0  0  0  0  0  0  0  0  0  0  0  0
    3.7717    0.7075    0.0000 C   0  0  0  0  0  0  0  0  0  0  0  0
    4.7179    0.4027    0.0000 C   0  0  0  0  0  0  0  0  0  0  0  0
    2.9056    2.2075    0.0000 C   0  0  0  0  0  0  0  0  0  0  0  0
    2.9056    0.2075    0.0000 C   0  0  0  0  0  0  0  0  0  0  0  0
    5.0286   -0.5478    0.0000 C   0  0  0  0  0  0  0  0  0  0  0  0
    2.0396    1.7075    0.0000 C   0  0  0  0  0  0  0  0  0  0  0  0
    4.3607   -1.2921    0.0000 C   0  0  0  0  0  0  0  0  0  0  0  0
    6.0071   -0.7540    0.0000 C   0  0  0  0  0  0  0  0  0  0  0  0
    4.6714   -2.2426    0.0000 C   0  0  0  0  0  0  0  0  0  0  0  0
    6.3177   -1.7045    0.0000 C   0  0  0  0  0  0  0  0  0  0  0  0
    5.6499   -2.4488    0.0000 C   0  0  0  0  0  0  0  0  0  0  0  0
    4.3142   -3.9374    0.0000 C   0  0  0  0  0  0  0  0  0  0  0  0
    3.6464   -4.6817    0.0000 C   0  0  0  0  0  0  0  0  0  0  0  0
    2.6678   -4.4755    0.0000 C   0  0  0  0  0  0  0  0  0  0  0  0
    3.9570   -5.6322    0.0000 C   0  0  0  0  0  0  0  0  0  0  0  0
    2.0000   -5.2198    0.0000 C   0  0  0  0  0  0  0  0  0  0  0  0
    3.2892   -6.3766    0.0000 C   0  0  0  0  0  0  0  0  0  0  0  0
    2.3107   -6.1703    0.0000 C   0  0  0  0  0  0  0  0  0  0  0  0
    4.9971    4.7104    0.0000 H   0  0  0  0  0  0  0  0  0  0  0  0
    5.4993    2.5592    0.0000 H   0  0  0  0  0  0  0  0  0  0  0  0
    4.2956    4.4074    0.0000 H   0  0  0  0  0  0  0  0  0  0  0  0
    4.0232    3.5740    0.0000 H   0  0  0  0  0  0  0  0  0  0  0  0
    6.2009    2.8623    0.0000 H   0  0  0  0  0  0  0  0  0  0  0  0
    6.4733    3.6957    0.0000 H   0  0  0  0  0  0  0  0  0  0  0  0
    5.7580    5.8772    0.0000 H   0  0  0  0  0  0  0  0  0  0  0  0
    5.1648    5.3448    0.0000 H   0  0  0  0  0  0  0  0  0  0  0  0
    7.0376    4.3792    0.0000 H   0  0  0  0  0  0  0  0  0  0  0  0
    7.8626    4.2911    0.0000 H   0  0  0  0  0  0  0  0  0  0  0  0
    7.2953    6.9828    0.0000 H   0  0  0  0  0  0  0  0  0  0  0  0
    6.5761    6.5692    0.0000 H   0  0  0  0  0  0  0  0  0  0  0  0
    8.6171    4.7250    0.0000 H   0  0  0  0  0  0  0  0  0  0  0  0
    8.9559    5.4824    0.0000 H   0  0  0  0  0  0  0  0  0  0  0  0
    8.7764    6.3340    0.0000 H   0  0  0  0  0  0  0  0  0  0  0  0
    8.1608    6.8903    0.0000 H   0  0  0  0  0  0  0  0  0  0  0  0
    2.9056    2.8275    0.0000 H   0  0  0  0  0  0  0  0  0  0  0  0
    1.5027    2.0175    0.0000 H   0  0  0  0  0  0  0  0  0  0  0  0
    3.7540   -1.1642    0.0000 H   0  0  0  0  0  0  0  0  0  0  0  0
    6.4211   -0.2925    0.0000 H   0  0  0  0  0  0  0  0  0  0  0  0
    2.3687   -1.1025    0.0000 H   0  0  0  0  0  0  0  0  0  0  0  0
    3.4426   -1.1025    0.0000 H   0  0  0  0  0  0  0  0  0  0  0  0
    6.9244   -1.8324    0.0000 H   0  0  0  0  0  0  0  0  0  0  0  0
    5.8425   -3.0381    0.0000 H   0  0  0  0  0  0  0  0  0  0  0  0
    4.6968   -4.4253    0.0000 H   0  0  0  0  0  0  0  0  0  0  0  0
    4.8611   -3.6454    0.0000 H   0  0  0  0  0  0  0  0  0  0  0  0
    2.4752   -3.8862    0.0000 H   0  0  0  0  0  0  0  0  0  0  0  0
    4.5637   -5.7601    0.0000 H   0  0  0  0  0  0  0  0  0  0  0  0
    1.3933   -5.0920    0.0000 H   0  0  0  0  0  0  0  0  0  0  0  0
    3.4818   -6.9659    0.0000 H   0  0  0  0  0  0  0  0  0  0  0  0
    1.8966   -6.6318    0.0000 H   0  0  0  0  0  0  0  0  0  0  0  0
  1 25  1  0  0  0  0
  1 28  1  0  0  0  0
  2 11  1  0  0  0  0
  2 13  1  0  0  0  0
  2 14  1  0  0  0  0
  3 12  1  0  0  0  0
  3 17  1  0  0  0  0
  3 19  1  0  0  0  0
  4 12  2  0  0  0  0
  4 18  1  0  0  0  0
  5 20  2  0  0  0  0
  5 22  1  0  0  0  0
  6 20  1  0  0  0  0
  6 55  1  0  0  0  0
  6 56  1  0  0  0  0
  7  9  1  0  0  0  0
  7 10  1  0  0  0  0
  7 11  1  0  0  0  0
  7 35  1  0  0  0  0
  8  9  1  0  0  0  0
  8 10  1  0  0  0  0
  8 12  1  0  0  0  0
  8 36  1  0  0  0  0
  9 37  1  0  0  0  0
  9 38  1  0  0  0  0
 10 39  1  0  0  0  0
 10 40  1  0  0  0  0
 11 41  1  0  0  0  0
 11 42  1  0  0  0  0
 13 15  1  0  0  0  0
 13 43  1  0  0  0  0
 13 44  1  0  0  0  0
 14 16  1  0  0  0  0
 14 45  1  0  0  0  0
 14 46  1  0  0  0  0
 15 16  1  0  0  0  0
 15 47  1  0  0  0  0
 15 48  1  0  0  0  0
 16 49  1  0  0  0  0
 16 50  1  0  0  0  0
 17 18  2  0  0  0  0
 17 20  1  0  0  0  0
 18 21  1  0  0  0  0
 19 22  2  0  0  0  0
 19 51  1  0  0  0  0
 21 23  2  0  0  0  0
 21 24  1  0  0  0  0
 22 52  1  0  0  0  0
 23 25  1  0  0  0  0
 23 53  1  0  0  0  0
 24 26  2  0  0  0  0
 24 54  1  0  0  0  0
 25 27  2  0  0  0  0
 26 27  1  0  0  0  0
 26 57  1  0  0  0  0
 27 58  1  0  0  0  0
 28 29  1  0  0  0  0
 28 59  1  0  0  0  0
 28 60  1  0  0  0  0
 29 30  2  0  0  0  0
 29 31  1  0  0  0  0
 30 32  1  0  0  0  0
 30 61  1  0  0  0  0
 31 33  2  0  0  0  0
 31 62  1  0  0  0  0
 32 34  2  0  0  0  0
 32 63  1  0  0  0  0
 33 34  1  0  0  0  0
 33 64  1  0  0  0  0
 34 65  1  0  0  0  0
M  END
> <PUBCHEM_COMPOUND_CID>
11442386

> <PUBCHEM_COMPOUND_CANONICALIZED>
1

> <PUBCHEM_CACTVS_COMPLEXITY>
645

> <PUBCHEM_CACTVS_HBOND_ACCEPTOR>
5

> <PUBCHEM_CACTVS_HBOND_DONOR>
1

> <PUBCHEM_CACTVS_ROTATABLE_BOND>
7

> <PUBCHEM_CACTVS_SUBSKEYS>
AAADceB7oAAAAAAAAAAAAAAAAABgAWLAAAA8YIAAAAAAAFgB9AAAHgAQAAAADQzhnwY99rdMHACgAzZnZACCiC0xMqAJ2CA+fJiMbuLE+duWPCjswBPI6Cew0LMOAAABAAAAAAAAAAIAAAAAAAAAAAAAAA==

> <PUBCHEM_IUPAC_OPENEYE_NAME>
1-(3-benzyloxyphenyl)-3-[3-(pyrrolidin-1-ylmethyl)cyclobutyl]imidazo[1,5-a]pyrazin-8-amine

> <PUBCHEM_IUPAC_CAS_NAME>
1-(3-phenylmethoxyphenyl)-3-[3-(1-pyrrolidinylmethyl)cyclobutyl]-8-imidazo[1,5-a]pyrazinamine

> <PUBCHEM_IUPAC_NAME_MARKUP>
1-(3-phenylmethoxyphenyl)-3-[3-(pyrrolidin-1-ylmethyl)cyclobutyl]imidazo[1,5-a]pyrazin-8-amine

> <PUBCHEM_IUPAC_NAME>
1-(3-phenylmethoxyphenyl)-3-[3-(pyrrolidin-1-ylmethyl)cyclobutyl]imidazo[1,5-a]pyrazin-8-amine

> <PUBCHEM_IUPAC_SYSTEMATIC_NAME>
1-(3-phenylmethoxyphenyl)-3-[3-(pyrrolidin-1-ylmethyl)cyclobutyl]imidazo[1,5-a]pyrazin-8-amine

> <PUBCHEM_IUPAC_TRADITIONAL_NAME>
[1-(3-benzoxyphenyl)-3-[3-(pyrrolidinomethyl)cyclobutyl]imidazo[1,5-a]pyrazin-8-yl]amine

> <PUBCHEM_IUPAC_INCHI>
InChI=1S/C28H31N5O/c29-27-26-25(22-9-6-10-24(17-22)34-19-20-7-2-1-3-8-20)31-28(33(26)14-11-30-27)23-15-21(16-23)18-32-12-4-5-13-32/h1-3,6-11,14,17,21,23H,4-5,12-13,15-16,18-19H2,(H2,29,30)

> <PUBCHEM_IUPAC_INCHIKEY>
CQFVDHNTTRWVQD-UHFFFAOYSA-N

> <PUBCHEM_XLOGP3_AA>
4.9

> <PUBCHEM_EXACT_MASS>
453.25286063

> <PUBCHEM_MOLECULAR_FORMULA>
C28H31N5O

> <PUBCHEM_MOLECULAR_WEIGHT>
453.6

> <PUBCHEM_SMILES>
C1CCN(C1)CC2CC(C2)C3=NC(=C4N3C=CN=C4N)C5=CC(=CC=C5)OCC6=CC=CC=C6

> <PUBCHEM_OPENEYE_CAN_SMILES>
C1CCN(C1)CC2CC(C2)C3=NC(=C4N3C=CN=C4N)C5=CC(=CC=C5)OCC6=CC=CC=C6

> <PUBCHEM_OPENEYE_ISO_SMILES>
C1CCN(C1)CC2CC(C2)C3=NC(=C4N3C=CN=C4N)C5=CC(=CC=C5)OCC6=CC=CC=C6

> <PUBCHEM_CACTVS_TPSA>
68.7

> <PUBCHEM_MONOISOTOPIC_WEIGHT>
453.25286063

> <PUBCHEM_TOTAL_CHARGE>
0

> <PUBCHEM_HEAVY_ATOM_COUNT>
34

> <PUBCHEM_ATOM_DEF_STEREO_COUNT>
0

> <PUBCHEM_ATOM_UDEF_STEREO_COUNT>
0

> <PUBCHEM_BOND_DEF_STEREO_COUNT>
0

> <PUBCHEM_BOND_UDEF_STEREO_COUNT>
0

> <PUBCHEM_ISOTOPIC_ATOM_COUNT>
0

> <PUBCHEM_COMPONENT_COUNT>
1

> <PUBCHEM_CACTVS_TAUTO_COUNT>
-1

> <PUBCHEM_COORDINATE_TYPE>
1
5
255

> <PUBCHEM_BONDANNOTATIONS>
17  18  8
17  20  8
19  22  8
21  23  8
21  24  8
23  25  8
24  26  8
25  27  8
26  27  8
29  30  8
29  31  8
3  12  8
3  17  8
3  19  8
30  32  8
31  33  8
32  34  8
33  34  8
4  12  8
4  18  8
5  20  8
5  22  8

$$$$
