49831025
  -OEChem-03202501362D

 26 27  0     0  0  0  0  0  0999 V2000
    3.2320    0.8667    0.0000 Cl  0  0  0  0  0  0  0  0  0  0  0  0
    2.0000    0.0007    0.0000 Cl  0  0  0  0  0  0  0  0  0  0  0  0
    5.5443   -1.8040    0.0000 S   0  0  0  0  0  0  0  0  0  0  0  0
    7.6279   -0.1333    0.0000 O   0  0  0  0  0  0  0  0  0  0  0  0
    4.6982    2.0451    0.0000 O   0  0  0  0  0  0  0  0  0  0  0  0
    5.8550    0.7559    0.0000 N   0  0  0  0  0  0  0  0  0  0  0  0
    7.6279   -1.8654    0.0000 N   0  0  0  0  0  0  0  0  0  0  0  0
    4.5981   -0.4993    0.0000 C   0  0  0  0  0  0  0  0  0  0  0  0
    5.5443   -0.1946    0.0000 C   0  0  0  0  0  0  0  0  0  0  0  0
    4.5981   -1.4993    0.0000 C   0  0  0  0  0  0  0  0  0  0  0  0
    6.1279   -0.9993    0.0000 C   0  0  0  0  0  0  0  0  0  0  0  0
    3.7320    0.0007    0.0000 C   0  0  0  0  0  0  0  0  0  0  0  0
    3.7320   -1.9993    0.0000 C   0  0  0  0  0  0  0  0  0  0  0  0
    2.8660   -0.4993    0.0000 C   0  0  0  0  0  0  0  0  0  0  0  0
    2.8660   -1.4993    0.0000 C   0  0  0  0  0  0  0  0  0  0  0  0
    7.1279   -0.9993    0.0000 C   0  0  0  0  0  0  0  0  0  0  0  0
    5.6487    1.7344    0.0000 C   0  0  0  0  0  0  0  0  0  0  0  0
    6.3930    2.4023    0.0000 C   0  0  0  0  0  0  0  0  0  0  0  0
    3.7320   -2.6193    0.0000 H   0  0  0  0  0  0  0  0  0  0  0  0
    6.4616    0.8838    0.0000 H   0  0  0  0  0  0  0  0  0  0  0  0
    2.3291   -1.8093    0.0000 H   0  0  0  0  0  0  0  0  0  0  0  0
    6.8071    1.9408    0.0000 H   0  0  0  0  0  0  0  0  0  0  0  0
    6.8545    2.8163    0.0000 H   0  0  0  0  0  0  0  0  0  0  0  0
    5.9790    2.8638    0.0000 H   0  0  0  0  0  0  0  0  0  0  0  0
    8.2479   -1.8654    0.0000 H   0  0  0  0  0  0  0  0  0  0  0  0
    7.3179   -2.4023    0.0000 H   0  0  0  0  0  0  0  0  0  0  0  0
  1 12  1  0  0  0  0
  2 14  1  0  0  0  0
  3 10  1  0  0  0  0
  3 11  1  0  0  0  0
  4 16  2  0  0  0  0
  5 17  2  0  0  0  0
  6  9  1  0  0  0  0
  6 17  1  0  0  0  0
  6 20  1  0  0  0  0
  7 16  1  0  0  0  0
  7 25  1  0  0  0  0
  7 26  1  0  0  0  0
  8  9  1  0  0  0  0
  8 10  2  0  0  0  0
  8 12  1  0  0  0  0
  9 11  2  0  0  0  0
 10 13  1  0  0  0  0
 11 16  1  0  0  0  0
 12 14  2  0  0  0  0
 13 15  2  0  0  0  0
 13 19  1  0  0  0  0
 14 15  1  0  0  0  0
 15 21  1  0  0  0  0
 17 18  1  0  0  0  0
 18 22  1  0  0  0  0
 18 23  1  0  0  0  0
 18 24  1  0  0  0  0
M  END
> <PUBCHEM_COMPOUND_CID>
49831025

> <PUBCHEM_COMPOUND_CANONICALIZED>
1

> <PUBCHEM_CACTVS_COMPLEXITY>
369

> <PUBCHEM_CACTVS_HBOND_ACCEPTOR>
3

> <PUBCHEM_CACTVS_HBOND_DONOR>
2

> <PUBCHEM_CACTVS_ROTATABLE_BOND>
2

> <PUBCHEM_CACTVS_SUBSKEYS>
AAADccBzMABGAAAAAAAAAAAAAAAAASAAAAAwAAAAAAAAAEgB8AAAHgYQAAAADAqB2CAywcLAAAiMAiVSUACDAIAlDRBIil0ARsgIIDrh1pGEIYxglADoyUcYiICOAAIAIBAFAAQABABAIAoACAAAAAAAAA==

> <PUBCHEM_IUPAC_OPENEYE_NAME>
3-acetamido-4,5-dichloro-benzothiophene-2-carboxamide

> <PUBCHEM_IUPAC_CAS_NAME>
3-acetamido-4,5-dichloro-1-benzothiophene-2-carboxamide

> <PUBCHEM_IUPAC_NAME_MARKUP>
3-acetamido-4,5-dichloro-1-benzothiophene-2-carboxamide

> <PUBCHEM_IUPAC_NAME>
3-acetamido-4,5-dichloro-1-benzothiophene-2-carboxamide

> <PUBCHEM_IUPAC_SYSTEMATIC_NAME>
3-acetamido-4,5-bis(chloranyl)-1-benzothiophene-2-carboxamide

> <PUBCHEM_IUPAC_TRADITIONAL_NAME>
3-acetamido-4,5-dichloro-benzothiophene-2-carboxamide

> <PUBCHEM_IUPAC_INCHI>
InChI=1S/C11H8Cl2N2O2S/c1-4(16)15-9-7-6(18-10(9)11(14)17)3-2-5(12)8(7)13/h2-3H,1H3,(H2,14,17)(H,15,16)

> <PUBCHEM_IUPAC_INCHIKEY>
DBKQWGCVGCVPIP-UHFFFAOYSA-N

> <PUBCHEM_XLOGP3_AA>
3.1

> <PUBCHEM_EXACT_MASS>
301.9683541

> <PUBCHEM_MOLECULAR_FORMULA>
C11H8Cl2N2O2S

> <PUBCHEM_MOLECULAR_WEIGHT>
303.2

> <PUBCHEM_SMILES>
CC(=O)NC1=C(SC2=C1C(=C(C=C2)Cl)Cl)C(=O)N

> <PUBCHEM_OPENEYE_CAN_SMILES>
CC(=O)NC1=C(SC2=C1C(=C(C=C2)Cl)Cl)C(=O)N

> <PUBCHEM_OPENEYE_ISO_SMILES>
CC(=O)NC1=C(SC2=C1C(=C(C=C2)Cl)Cl)C(=O)N

> <PUBCHEM_CACTVS_TPSA>
100

> <PUBCHEM_MONOISOTOPIC_WEIGHT>
301.9683541

> <PUBCHEM_TOTAL_CHARGE>
0

> <PUBCHEM_HEAVY_ATOM_COUNT>
18

> <PUBCHEM_ATOM_DEF_STEREO_COUNT>
0

> <PUBCHEM_ATOM_UDEF_STEREO_COUNT>
0

> <PUBCHEM_BOND_DEF_STEREO_COUNT>
0

> <PUBCHEM_BOND_UDEF_STEREO_COUNT>
0

> <PUBCHEM_ISOTOPIC_ATOM_COUNT>
0

> <PUBCHEM_COMPONENT_COUNT>
1

> <PUBCHEM_CACTVS_TAUTO_COUNT>
-1

> <PUBCHEM_COORDINATE_TYPE>
1
5
255

> <PUBCHEM_BONDANNOTATIONS>
10  13  8
12  14  8
13  15  8
14  15  8
3  10  8
3  11  8
8  10  8
8  12  8
8  9  8
9  11  8

$$$$
