49831006
  -OEChem-03202502522D

 39 40  0     0  0  0  0  0  0999 V2000
    3.4030    2.5000    0.0000 O   0  0  0  0  0  0  0  0  0  0  0  0
    2.5369    1.0000    0.0000 O   0  0  0  0  0  0  0  0  0  0  0  0
    2.5369   -2.0000    0.0000 O   0  0  0  0  0  0  0  0  0  0  0  0
    5.1350    2.5000    0.0000 N   0  0  0  0  0  0  0  0  0  0  0  0
    6.8671    3.5000    0.0000 N   0  0  0  0  0  0  0  0  0  0  0  0
    4.2690   -2.0000    0.0000 N   0  0  0  0  0  0  0  0  0  0  0  0
    6.0010    2.0000    0.0000 C   0  0  0  0  0  0  0  0  0  0  0  0
    5.1350    3.5000    0.0000 C   0  0  0  0  0  0  0  0  0  0  0  0
    6.8671    2.5000    0.0000 C   0  0  0  0  0  0  0  0  0  0  0  0
    6.0010    4.0000    0.0000 C   0  0  0  0  0  0  0  0  0  0  0  0
    4.2690    2.0000    0.0000 C   0  0  0  0  0  0  0  0  0  0  0  0
    4.2690    1.0000    0.0000 C   0  0  0  0  0  0  0  0  0  0  0  0
    3.4030    0.5000    0.0000 C   0  0  0  0  0  0  0  0  0  0  0  0
    5.1350    0.5000    0.0000 C   0  0  0  0  0  0  0  0  0  0  0  0
    4.2690   -1.0000    0.0000 C   0  0  0  0  0  0  0  0  0  0  0  0
    3.4030   -0.5000    0.0000 C   0  0  0  0  0  0  0  0  0  0  0  0
    5.1350   -0.5000    0.0000 C   0  0  0  0  0  0  0  0  0  0  0  0
    3.4030   -2.5000    0.0000 C   0  0  0  0  0  0  0  0  0  0  0  0
    3.4030   -3.5000    0.0000 C   0  0  0  0  0  0  0  0  0  0  0  0
    2.5369   -4.0000    0.0000 C   0  0  0  0  0  0  0  0  0  0  0  0
    5.6025    1.5250    0.0000 H   0  0  0  0  0  0  0  0  0  0  0  0
    6.3996    1.5250    0.0000 H   0  0  0  0  0  0  0  0  0  0  0  0
    4.9230    4.0826    0.0000 H   0  0  0  0  0  0  0  0  0  0  0  0
    4.5244    3.3923    0.0000 H   0  0  0  0  0  0  0  0  0  0  0  0
    7.0791    1.9174    0.0000 H   0  0  0  0  0  0  0  0  0  0  0  0
    7.4776    2.6077    0.0000 H   0  0  0  0  0  0  0  0  0  0  0  0
    6.3996    4.4750    0.0000 H   0  0  0  0  0  0  0  0  0  0  0  0
    5.6025    4.4750    0.0000 H   0  0  0  0  0  0  0  0  0  0  0  0
    7.4040    3.8100    0.0000 H   0  0  0  0  0  0  0  0  0  0  0  0
    5.6720    0.8100    0.0000 H   0  0  0  0  0  0  0  0  0  0  0  0
    2.8660   -0.8100    0.0000 H   0  0  0  0  0  0  0  0  0  0  0  0
    5.6720   -0.8100    0.0000 H   0  0  0  0  0  0  0  0  0  0  0  0
    4.8059   -2.3100    0.0000 H   0  0  0  0  0  0  0  0  0  0  0  0
    3.6150   -4.0826    0.0000 H   0  0  0  0  0  0  0  0  0  0  0  0
    4.0135   -3.3923    0.0000 H   0  0  0  0  0  0  0  0  0  0  0  0
    2.0000    0.6900    0.0000 H   0  0  0  0  0  0  0  0  0  0  0  0
    2.2269   -3.4631    0.0000 H   0  0  0  0  0  0  0  0  0  0  0  0
    2.0000   -4.3100    0.0000 H   0  0  0  0  0  0  0  0  0  0  0  0
    2.8469   -4.5369    0.0000 H   0  0  0  0  0  0  0  0  0  0  0  0
  1 11  2  0  0  0  0
  2 13  1  0  0  0  0
  2 36  1  0  0  0  0
  3 18  2  0  0  0  0
  4  7  1  0  0  0  0
  4  8  1  0  0  0  0
  4 11  1  0  0  0  0
  5  9  1  0  0  0  0
  5 10  1  0  0  0  0
  5 29  1  0  0  0  0
  6 15  1  0  0  0  0
  6 18  1  0  0  0  0
  6 33  1  0  0  0  0
  7  9  1  0  0  0  0
  7 21  1  0  0  0  0
  7 22  1  0  0  0  0
  8 10  1  0  0  0  0
  8 23  1  0  0  0  0
  8 24  1  0  0  0  0
  9 25  1  0  0  0  0
  9 26  1  0  0  0  0
 10 27  1  0  0  0  0
 10 28  1  0  0  0  0
 11 12  1  0  0  0  0
 12 13  2  0  0  0  0
 12 14  1  0  0  0  0
 13 16  1  0  0  0  0
 14 17  2  0  0  0  0
 14 30  1  0  0  0  0
 15 16  2  0  0  0  0
 15 17  1  0  0  0  0
 16 31  1  0  0  0  0
 17 32  1  0  0  0  0
 18 19  1  0  0  0  0
 19 20  1  0  0  0  0
 19 34  1  0  0  0  0
 19 35  1  0  0  0  0
 20 37  1  0  0  0  0
 20 38  1  0  0  0  0
 20 39  1  0  0  0  0
M  END
> <PUBCHEM_COMPOUND_CID>
49831006

> <PUBCHEM_COMPOUND_CANONICALIZED>
1

> <PUBCHEM_CACTVS_COMPLEXITY>
356

> <PUBCHEM_CACTVS_HBOND_ACCEPTOR>
4

> <PUBCHEM_CACTVS_HBOND_DONOR>
3

> <PUBCHEM_CACTVS_ROTATABLE_BOND>
3

> <PUBCHEM_CACTVS_SUBSKEYS>
AAADceBzMAAAAAAAAAAAAAAAAAAAAAAAAAA8QAAAAAAAAAABAAAAHgAQCAAADAzBmAQyxoPAAgCIAiVSUACCAAAlIgAIiIEObMgIZjbClZOUcUhm9hnI2YeY2SOeCAAAAgAIAAAQAAAEABAAAAAAAAAAAA==

> <PUBCHEM_IUPAC_OPENEYE_NAME>
N-[3-hydroxy-4-(piperazine-1-carbonyl)phenyl]propanamide

> <PUBCHEM_IUPAC_CAS_NAME>
N-[3-hydroxy-4-[oxo(1-piperazinyl)methyl]phenyl]propanamide

> <PUBCHEM_IUPAC_NAME_MARKUP>
<I>N</I>-[3-hydroxy-4-(piperazine-1-carbonyl)phenyl]propanamide

> <PUBCHEM_IUPAC_NAME>
N-[3-hydroxy-4-(piperazine-1-carbonyl)phenyl]propanamide

> <PUBCHEM_IUPAC_SYSTEMATIC_NAME>
N-(3-oxidanyl-4-piperazin-1-ylcarbonyl-phenyl)propanamide

> <PUBCHEM_IUPAC_TRADITIONAL_NAME>
N-[3-hydroxy-4-(piperazine-1-carbonyl)phenyl]propionamide

> <PUBCHEM_IUPAC_INCHI>
InChI=1S/C14H19N3O3/c1-2-13(19)16-10-3-4-11(12(18)9-10)14(20)17-7-5-15-6-8-17/h3-4,9,15,18H,2,5-8H2,1H3,(H,16,19)

> <PUBCHEM_IUPAC_INCHIKEY>
AEYLJTAIDDIOBA-UHFFFAOYSA-N

> <PUBCHEM_XLOGP3>
1.4

> <PUBCHEM_EXACT_MASS>
277.14264148

> <PUBCHEM_MOLECULAR_FORMULA>
C14H19N3O3

> <PUBCHEM_MOLECULAR_WEIGHT>
277.32

> <PUBCHEM_SMILES>
CCC(=O)NC1=CC(=C(C=C1)C(=O)N2CCNCC2)O

> <PUBCHEM_OPENEYE_CAN_SMILES>
CCC(=O)NC1=CC(=C(C=C1)C(=O)N2CCNCC2)O

> <PUBCHEM_OPENEYE_ISO_SMILES>
CCC(=O)NC1=CC(=C(C=C1)C(=O)N2CCNCC2)O

> <PUBCHEM_CACTVS_TPSA>
81.7

> <PUBCHEM_MONOISOTOPIC_WEIGHT>
277.14264148

> <PUBCHEM_TOTAL_CHARGE>
0

> <PUBCHEM_HEAVY_ATOM_COUNT>
20

> <PUBCHEM_ATOM_DEF_STEREO_COUNT>
0

> <PUBCHEM_ATOM_UDEF_STEREO_COUNT>
0

> <PUBCHEM_BOND_DEF_STEREO_COUNT>
0

> <PUBCHEM_BOND_UDEF_STEREO_COUNT>
0

> <PUBCHEM_ISOTOPIC_ATOM_COUNT>
0

> <PUBCHEM_COMPONENT_COUNT>
1

> <PUBCHEM_CACTVS_TAUTO_COUNT>
-1

> <PUBCHEM_COORDINATE_TYPE>
1
5
255

> <PUBCHEM_BONDANNOTATIONS>
12  13  8
12  14  8
13  16  8
14  17  8
15  16  8
15  17  8

$$$$
