44444843
  -OEChem-03202505032D

 50 53  0     0  0  0  0  0  0999 V2000
    6.3301    3.8988    0.0000 Cl  0  0  0  0  0  0  0  0  0  0  0  0
   10.7078    2.4920    0.0000 S   0  0  0  0  0  0  0  0  0  0  0  0
    6.3301   -0.1012    0.0000 O   0  0  0  0  0  0  0  0  0  0  0  0
    4.5981   -2.1012    0.0000 O   0  0  0  0  0  0  0  0  0  0  0  0
    3.7320    2.3988    0.0000 O   0  0  0  0  0  0  0  0  0  0  0  0
    8.0622    2.8988    0.0000 N   0  0  0  0  0  0  0  0  0  0  0  0
    4.5981    0.8988    0.0000 N   0  0  0  0  0  0  0  0  0  0  0  0
    2.8660    0.8988    0.0000 N   0  0  0  0  0  0  0  0  0  0  0  0
    3.7320   -0.6012    0.0000 N   0  0  0  0  0  0  0  0  0  0  0  0
    2.0000   -1.6012    0.0000 N   0  0  0  0  0  0  0  0  0  0  0  0
   10.8769    4.1012    0.0000 N   0  0  0  0  0  0  0  0  0  0  0  0
    2.8660   -4.1012    0.0000 N   0  0  0  0  0  0  0  0  0  0  0  0
    7.1962   -1.6012    0.0000 C   0  0  0  0  0  0  0  0  0  0  0  0
    6.3301   -2.1012    0.0000 C   0  0  0  0  0  0  0  0  0  0  0  0
    7.1962   -0.6012    0.0000 C   0  0  0  0  0  0  0  0  0  0  0  0
    5.4641   -1.6012    0.0000 C   0  0  0  0  0  0  0  0  0  0  0  0
    6.3301    0.8988    0.0000 C   0  0  0  0  0  0  0  0  0  0  0  0
    5.4641    1.3988    0.0000 C   0  0  0  0  0  0  0  0  0  0  0  0
    7.1962    2.3988    0.0000 C   0  0  0  0  0  0  0  0  0  0  0  0
    7.1962    1.3988    0.0000 C   0  0  0  0  0  0  0  0  0  0  0  0
    5.4641    2.3988    0.0000 C   0  0  0  0  0  0  0  0  0  0  0  0
    6.3301    2.8988    0.0000 C   0  0  0  0  0  0  0  0  0  0  0  0
    8.9282    2.3988    0.0000 C   0  0  0  0  0  0  0  0  0  0  0  0
    3.7320   -1.6012    0.0000 C   0  0  0  0  0  0  0  0  0  0  0  0
    9.7942    2.8988    0.0000 C   0  0  0  0  0  0  0  0  0  0  0  0
    3.7320    1.3988    0.0000 C   0  0  0  0  0  0  0  0  0  0  0  0
    2.8660   -0.1012    0.0000 C   0  0  0  0  0  0  0  0  0  0  0  0
    2.8660   -2.1012    0.0000 C   0  0  0  0  0  0  0  0  0  0  0  0
    9.8988    3.8933    0.0000 C   0  0  0  0  0  0  0  0  0  0  0  0
    2.0000   -0.6012    0.0000 C   0  0  0  0  0  0  0  0  0  0  0  0
   11.3769    3.2352    0.0000 C   0  0  0  0  0  0  0  0  0  0  0  0
    2.8660   -3.1012    0.0000 C   0  0  0  0  0  0  0  0  0  0  0  0
    7.4082   -2.1838    0.0000 H   0  0  0  0  0  0  0  0  0  0  0  0
    7.8067   -1.4936    0.0000 H   0  0  0  0  0  0  0  0  0  0  0  0
    5.9316   -2.5762    0.0000 H   0  0  0  0  0  0  0  0  0  0  0  0
    6.7287   -2.5762    0.0000 H   0  0  0  0  0  0  0  0  0  0  0  0
    7.8067   -0.7089    0.0000 H   0  0  0  0  0  0  0  0  0  0  0  0
    7.4082   -0.0186    0.0000 H   0  0  0  0  0  0  0  0  0  0  0  0
    5.8626   -1.1263    0.0000 H   0  0  0  0  0  0  0  0  0  0  0  0
    5.0656   -1.1263    0.0000 H   0  0  0  0  0  0  0  0  0  0  0  0
    7.7331    1.0888    0.0000 H   0  0  0  0  0  0  0  0  0  0  0  0
    4.9272    2.7088    0.0000 H   0  0  0  0  0  0  0  0  0  0  0  0
    8.0622    3.5188    0.0000 H   0  0  0  0  0  0  0  0  0  0  0  0
    8.5297    1.9238    0.0000 H   0  0  0  0  0  0  0  0  0  0  0  0
    9.3267    1.9238    0.0000 H   0  0  0  0  0  0  0  0  0  0  0  0
    4.5981    0.2788    0.0000 H   0  0  0  0  0  0  0  0  0  0  0  0
    2.3291    1.2088    0.0000 H   0  0  0  0  0  0  0  0  0  0  0  0
    9.4380    4.3082    0.0000 H   0  0  0  0  0  0  0  0  0  0  0  0
    1.4631   -0.2912    0.0000 H   0  0  0  0  0  0  0  0  0  0  0  0
   11.9935    3.1704    0.0000 H   0  0  0  0  0  0  0  0  0  0  0  0
  1 22  1  0  0  0  0
  2 25  1  0  0  0  0
  2 31  1  0  0  0  0
  3 15  1  0  0  0  0
  3 17  1  0  0  0  0
  4 16  1  0  0  0  0
  4 24  1  0  0  0  0
  5 26  2  0  0  0  0
  6 19  1  0  0  0  0
  6 23  1  0  0  0  0
  6 43  1  0  0  0  0
  7 18  1  0  0  0  0
  7 26  1  0  0  0  0
  7 46  1  0  0  0  0
  8 26  1  0  0  0  0
  8 27  1  0  0  0  0
  8 47  1  0  0  0  0
  9 24  2  0  0  0  0
  9 27  1  0  0  0  0
 10 28  2  0  0  0  0
 10 30  1  0  0  0  0
 11 29  1  0  0  0  0
 11 31  2  0  0  0  0
 12 32  3  0  0  0  0
 13 14  1  0  0  0  0
 13 15  1  0  0  0  0
 13 33  1  0  0  0  0
 13 34  1  0  0  0  0
 14 16  1  0  0  0  0
 14 35  1  0  0  0  0
 14 36  1  0  0  0  0
 15 37  1  0  0  0  0
 15 38  1  0  0  0  0
 16 39  1  0  0  0  0
 16 40  1  0  0  0  0
 17 18  1  0  0  0  0
 17 20  2  0  0  0  0
 18 21  2  0  0  0  0
 19 20  1  0  0  0  0
 19 22  2  0  0  0  0
 20 41  1  0  0  0  0
 21 22  1  0  0  0  0
 21 42  1  0  0  0  0
 23 25  1  0  0  0  0
 23 44  1  0  0  0  0
 23 45  1  0  0  0  0
 24 28  1  0  0  0  0
 25 29  2  0  0  0  0
 27 30  2  0  0  0  0
 28 32  1  0  0  0  0
 29 48  1  0  0  0  0
 30 49  1  0  0  0  0
 31 50  1  0  0  0  0
M  END
> <PUBCHEM_COMPOUND_CID>
44444843

> <PUBCHEM_COMPOUND_CANONICALIZED>
1

> <PUBCHEM_CACTVS_COMPLEXITY>
683

> <PUBCHEM_CACTVS_HBOND_ACCEPTOR>
9

> <PUBCHEM_CACTVS_HBOND_DONOR>
3

> <PUBCHEM_CACTVS_ROTATABLE_BOND>
3

> <PUBCHEM_CACTVS_SUBSKEYS>
AAADceB7sABEAAAAAAAAAAAAAAAAAWAAAAA8QAAAAAAAAAAB8AAAHgYQAAAACA7h1ia995LIFAi8BTZndASi+K1xfzhB2Iw/foiO5mLF85vfOCju1RvY6CfQUAMAACCAAgIAEBAAQQAEBAAgIAAAAAAAAA==

> <PUBCHEM_IUPAC_OPENEYE_NAME>
7-chloro-3-oxo-8-(thiazol-5-ylmethylamino)-11,16-dioxa-2,4,19,21-tetrazatricyclo[15.3.1.05,10]henicosa-1(20),5,7,9,17(21),18-hexaene-18-carbonitrile

> <PUBCHEM_IUPAC_CAS_NAME>
7-chloro-3-oxo-8-(5-thiazolylmethylamino)-11,16-dioxa-2,4,19,21-tetrazatricyclo[15.3.1.05,10]heneicosa-1(20),5,7,9,17(21),18-hexaene-18-carbonitrile

> <PUBCHEM_IUPAC_NAME_MARKUP>
7-chloro-3-oxo-8-(1,3-thiazol-5-ylmethylamino)-11,16-dioxa-2,4,19,21-tetrazatricyclo[15.3.1.0<SUP>5,10</SUP>]henicosa-1(20),5,7,9,17(21),18-hexaene-18-carbonitrile

> <PUBCHEM_IUPAC_NAME>
7-chloro-3-oxo-8-(1,3-thiazol-5-ylmethylamino)-11,16-dioxa-2,4,19,21-tetrazatricyclo[15.3.1.05,10]henicosa-1(20),5,7,9,17(21),18-hexaene-18-carbonitrile

> <PUBCHEM_IUPAC_SYSTEMATIC_NAME>
7-chloranyl-3-oxidanylidene-8-(1,3-thiazol-5-ylmethylamino)-11,16-dioxa-2,4,19,21-tetrazatricyclo[15.3.1.05,10]henicosa-1(20),5,7,9,17(21),18-hexaene-18-carbonitrile

> <PUBCHEM_IUPAC_TRADITIONAL_NAME>
7-chloro-3-keto-8-(thiazol-5-ylmethylamino)-11,16-dioxa-2,4,19,21-tetrazatricyclo[15.3.1.05,10]heneicosa-1(20),5,7,9,17(21),18-hexaene-18-carbonitrile

> <PUBCHEM_IUPAC_INCHI>
InChI=1S/C20H18ClN7O3S/c21-13-5-15-17(6-14(13)24-9-12-8-23-11-32-12)30-3-1-2-4-31-19-16(7-22)25-10-18(27-19)28-20(29)26-15/h5-6,8,10-11,24H,1-4,9H2,(H2,26,27,28,29)

> <PUBCHEM_IUPAC_INCHIKEY>
AZTMYWWWILJAKW-UHFFFAOYSA-N

> <PUBCHEM_XLOGP3_AA>
2.7

> <PUBCHEM_EXACT_MASS>
471.0880363

> <PUBCHEM_MOLECULAR_FORMULA>
C20H18ClN7O3S

> <PUBCHEM_MOLECULAR_WEIGHT>
471.9

> <PUBCHEM_SMILES>
C1CCOC2=NC(=CN=C2C#N)NC(=O)NC3=CC(=C(C=C3OC1)NCC4=CN=CS4)Cl

> <PUBCHEM_OPENEYE_CAN_SMILES>
C1CCOC2=NC(=CN=C2C#N)NC(=O)NC3=CC(=C(C=C3OC1)NCC4=CN=CS4)Cl

> <PUBCHEM_OPENEYE_ISO_SMILES>
C1CCOC2=NC(=CN=C2C#N)NC(=O)NC3=CC(=C(C=C3OC1)NCC4=CN=CS4)Cl

> <PUBCHEM_CACTVS_TPSA>
162

> <PUBCHEM_MONOISOTOPIC_WEIGHT>
471.0880363

> <PUBCHEM_TOTAL_CHARGE>
0

> <PUBCHEM_HEAVY_ATOM_COUNT>
32

> <PUBCHEM_ATOM_DEF_STEREO_COUNT>
0

> <PUBCHEM_ATOM_UDEF_STEREO_COUNT>
0

> <PUBCHEM_BOND_DEF_STEREO_COUNT>
0

> <PUBCHEM_BOND_UDEF_STEREO_COUNT>
0

> <PUBCHEM_ISOTOPIC_ATOM_COUNT>
0

> <PUBCHEM_COMPONENT_COUNT>
1

> <PUBCHEM_CACTVS_TAUTO_COUNT>
-1

> <PUBCHEM_COORDINATE_TYPE>
1
5
255

> <PUBCHEM_BONDANNOTATIONS>
10  28  8
10  30  8
11  29  8
11  31  8
17  18  8
17  20  8
18  21  8
19  20  8
19  22  8
2  25  8
2  31  8
21  22  8
24  28  8
25  29  8
27  30  8
9  24  8
9  27  8

$$$$
