44410829
  -OEChem-03202504362D

 48 51  0     0  0  0  0  0  0999 V2000
   13.3041   -1.0474    0.0000 Cl  0  0  0  0  0  0  0  0  0  0  0  0
   11.5837   -0.0274    0.0000 F   0  0  0  0  0  0  0  0  0  0  0  0
    3.4030    2.7344    0.0000 O   0  0  0  0  0  0  0  0  0  0  0  0
    6.3598    2.0272    0.0000 O   0  0  0  0  0  0  0  0  0  0  0  0
    5.4937    0.5272    0.0000 N   0  0  0  0  0  0  0  0  0  0  0  0
    2.5369    1.2344    0.0000 N   0  0  0  0  0  0  0  0  0  0  0  0
    9.8518    2.0619    0.0000 N   0  0  0  0  0  0  0  0  0  0  0  0
    9.8402   -1.0074    0.0000 N   0  0  0  0  0  0  0  0  0  0  0  0
   10.7578    0.5064    0.0000 N   0  0  0  0  0  0  0  0  0  0  0  0
    4.2690    1.2344    0.0000 C   0  0  0  0  0  0  0  0  0  0  0  0
    5.2349    1.4932    0.0000 C   0  0  0  0  0  0  0  0  0  0  0  0
    4.5278    0.2684    0.0000 C   0  0  0  0  0  0  0  0  0  0  0  0
    6.3598    0.0272    0.0000 C   0  0  0  0  0  0  0  0  0  0  0  0
    3.4030    1.7344    0.0000 C   0  0  0  0  0  0  0  0  0  0  0  0
    7.2258    0.5272    0.0000 C   0  0  0  0  0  0  0  0  0  0  0  0
    8.0918    0.0272    0.0000 C   0  0  0  0  0  0  0  0  0  0  0  0
    7.2258    1.5272    0.0000 C   0  0  0  0  0  0  0  0  0  0  0  0
    8.9578    0.5272    0.0000 C   0  0  0  0  0  0  0  0  0  0  0  0
    8.0918    2.0272    0.0000 C   0  0  0  0  0  0  0  0  0  0  0  0
    8.9578    1.5272    0.0000 C   0  0  0  0  0  0  0  0  0  0  0  0
    9.8518   -0.0074    0.0000 C   0  0  0  0  0  0  0  0  0  0  0  0
    6.3598    3.0272    0.0000 C   0  0  0  0  0  0  0  0  0  0  0  0
   10.7578    1.5481    0.0000 C   0  0  0  0  0  0  0  0  0  0  0  0
   10.7004   -1.5173    0.0000 C   0  0  0  0  0  0  0  0  0  0  0  0
   11.5721   -1.0274    0.0000 C   0  0  0  0  0  0  0  0  0  0  0  0
   10.6888   -2.5173    0.0000 C   0  0  0  0  0  0  0  0  0  0  0  0
   12.4323   -1.5374    0.0000 C   0  0  0  0  0  0  0  0  0  0  0  0
   11.5490   -3.0272    0.0000 C   0  0  0  0  0  0  0  0  0  0  0  0
   12.4208   -2.5373    0.0000 C   0  0  0  0  0  0  0  0  0  0  0  0
    4.3499    1.8490    0.0000 H   0  0  0  0  0  0  0  0  0  0  0  0
    5.8338    1.6536    0.0000 H   0  0  0  0  0  0  0  0  0  0  0  0
    5.0744    2.0920    0.0000 H   0  0  0  0  0  0  0  0  0  0  0  0
    3.9289    0.1080    0.0000 H   0  0  0  0  0  0  0  0  0  0  0  0
    4.6883   -0.3304    0.0000 H   0  0  0  0  0  0  0  0  0  0  0  0
    5.9612   -0.4477    0.0000 H   0  0  0  0  0  0  0  0  0  0  0  0
    6.7583   -0.4477    0.0000 H   0  0  0  0  0  0  0  0  0  0  0  0
    8.0918   -0.5928    0.0000 H   0  0  0  0  0  0  0  0  0  0  0  0
    2.0000    1.5443    0.0000 H   0  0  0  0  0  0  0  0  0  0  0  0
    2.5369    0.6144    0.0000 H   0  0  0  0  0  0  0  0  0  0  0  0
    8.0918    2.6472    0.0000 H   0  0  0  0  0  0  0  0  0  0  0  0
    9.2997   -1.3111    0.0000 H   0  0  0  0  0  0  0  0  0  0  0  0
    6.9798    3.0272    0.0000 H   0  0  0  0  0  0  0  0  0  0  0  0
    6.3598    3.6472    0.0000 H   0  0  0  0  0  0  0  0  0  0  0  0
    5.7398    3.0272    0.0000 H   0  0  0  0  0  0  0  0  0  0  0  0
   11.2936    1.8601    0.0000 H   0  0  0  0  0  0  0  0  0  0  0  0
   10.1483   -2.8210    0.0000 H   0  0  0  0  0  0  0  0  0  0  0  0
   11.5419   -3.6472    0.0000 H   0  0  0  0  0  0  0  0  0  0  0  0
   12.9541   -2.8535    0.0000 H   0  0  0  0  0  0  0  0  0  0  0  0
  1 27  1  0  0  0  0
  2 25  1  0  0  0  0
  3 14  2  0  0  0  0
  4 17  1  0  0  0  0
  4 22  1  0  0  0  0
  5 11  1  0  0  0  0
  5 12  1  0  0  0  0
  5 13  1  0  0  0  0
  6 14  1  0  0  0  0
  6 38  1  0  0  0  0
  6 39  1  0  0  0  0
  7 20  1  0  0  0  0
  7 23  2  0  0  0  0
  8 21  1  0  0  0  0
  8 24  1  0  0  0  0
  8 41  1  0  0  0  0
  9 21  2  0  0  0  0
  9 23  1  0  0  0  0
 10 11  1  0  0  0  0
 10 12  1  0  0  0  0
 10 14  1  0  0  0  0
 10 30  1  0  0  0  0
 11 31  1  0  0  0  0
 11 32  1  0  0  0  0
 12 33  1  0  0  0  0
 12 34  1  0  0  0  0
 13 15  1  0  0  0  0
 13 35  1  0  0  0  0
 13 36  1  0  0  0  0
 15 16  2  0  0  0  0
 15 17  1  0  0  0  0
 16 18  1  0  0  0  0
 16 37  1  0  0  0  0
 17 19  2  0  0  0  0
 18 20  2  0  0  0  0
 18 21  1  0  0  0  0
 19 20  1  0  0  0  0
 19 40  1  0  0  0  0
 22 42  1  0  0  0  0
 22 43  1  0  0  0  0
 22 44  1  0  0  0  0
 23 45  1  0  0  0  0
 24 25  2  0  0  0  0
 24 26  1  0  0  0  0
 25 27  1  0  0  0  0
 26 28  2  0  0  0  0
 26 46  1  0  0  0  0
 27 29  2  0  0  0  0
 28 29  1  0  0  0  0
 28 47  1  0  0  0  0
 29 48  1  0  0  0  0
M  END
> <PUBCHEM_COMPOUND_CID>
44410829

> <PUBCHEM_COMPOUND_CANONICALIZED>
1

> <PUBCHEM_CACTVS_COMPLEXITY>
581

> <PUBCHEM_CACTVS_HBOND_ACCEPTOR>
7

> <PUBCHEM_CACTVS_HBOND_DONOR>
2

> <PUBCHEM_CACTVS_ROTATABLE_BOND>
6

> <PUBCHEM_CACTVS_SUBSKEYS>
AAADceB7sQAEAAAAAAAAAAAAAABYAAAAAAA8YIAAAAAAAACx9AAAHwIQAAAADQ7Bni439vfIFACoAydzdACCiCkxJ6AJ2CE+bpiMLurF+9uENChu0BvI6CeQ0GMOKAACAgIKAABQAAQEBBQAAAAAAAAAAA==

> <PUBCHEM_IUPAC_OPENEYE_NAME>
1-[[4-(3-chloro-2-fluoro-anilino)-7-methoxy-quinazolin-6-yl]methyl]azetidine-3-carboxamide

> <PUBCHEM_IUPAC_CAS_NAME>
1-[[4-(3-chloro-2-fluoroanilino)-7-methoxy-6-quinazolinyl]methyl]-3-azetidinecarboxamide

> <PUBCHEM_IUPAC_NAME_MARKUP>
1-[[4-(3-chloro-2-fluoroanilino)-7-methoxyquinazolin-6-yl]methyl]azetidine-3-carboxamide

> <PUBCHEM_IUPAC_NAME>
1-[[4-(3-chloro-2-fluoroanilino)-7-methoxyquinazolin-6-yl]methyl]azetidine-3-carboxamide

> <PUBCHEM_IUPAC_SYSTEMATIC_NAME>
1-[[4-[(3-chloranyl-2-fluoranyl-phenyl)amino]-7-methoxy-quinazolin-6-yl]methyl]azetidine-3-carboxamide

> <PUBCHEM_IUPAC_TRADITIONAL_NAME>
1-[[4-(3-chloro-2-fluoro-anilino)-7-methoxy-quinazolin-6-yl]methyl]azetidine-3-carboxamide

> <PUBCHEM_IUPAC_INCHI>
InChI=1S/C20H19ClFN5O2/c1-29-17-6-16-13(5-11(17)7-27-8-12(9-27)19(23)28)20(25-10-24-16)26-15-4-2-3-14(21)18(15)22/h2-6,10,12H,7-9H2,1H3,(H2,23,28)(H,24,25,26)

> <PUBCHEM_IUPAC_INCHIKEY>
GVCKAAILNIXCRU-UHFFFAOYSA-N

> <PUBCHEM_XLOGP3_AA>
2.6

> <PUBCHEM_EXACT_MASS>
415.1211307

> <PUBCHEM_MOLECULAR_FORMULA>
C20H19ClFN5O2

> <PUBCHEM_MOLECULAR_WEIGHT>
415.8

> <PUBCHEM_SMILES>
COC1=CC2=C(C=C1CN3CC(C3)C(=O)N)C(=NC=N2)NC4=C(C(=CC=C4)Cl)F

> <PUBCHEM_OPENEYE_CAN_SMILES>
COC1=CC2=C(C=C1CN3CC(C3)C(=O)N)C(=NC=N2)NC4=C(C(=CC=C4)Cl)F

> <PUBCHEM_OPENEYE_ISO_SMILES>
COC1=CC2=C(C=C1CN3CC(C3)C(=O)N)C(=NC=N2)NC4=C(C(=CC=C4)Cl)F

> <PUBCHEM_CACTVS_TPSA>
93.4

> <PUBCHEM_MONOISOTOPIC_WEIGHT>
415.1211307

> <PUBCHEM_TOTAL_CHARGE>
0

> <PUBCHEM_HEAVY_ATOM_COUNT>
29

> <PUBCHEM_ATOM_DEF_STEREO_COUNT>
0

> <PUBCHEM_ATOM_UDEF_STEREO_COUNT>
0

> <PUBCHEM_BOND_DEF_STEREO_COUNT>
0

> <PUBCHEM_BOND_UDEF_STEREO_COUNT>
0

> <PUBCHEM_ISOTOPIC_ATOM_COUNT>
0

> <PUBCHEM_COMPONENT_COUNT>
1

> <PUBCHEM_CACTVS_TAUTO_COUNT>
-1

> <PUBCHEM_COORDINATE_TYPE>
1
5
255

> <PUBCHEM_BONDANNOTATIONS>
15  16  8
15  17  8
16  18  8
17  19  8
18  20  8
18  21  8
19  20  8
24  25  8
24  26  8
25  27  8
26  28  8
27  29  8
28  29  8
7  20  8
7  23  8
9  21  8
9  23  8

$$$$
