24894620
  -OEChem-03202506492D

 55 59  0     0  0  0  0  0  0999 V2000
    6.3301   -1.2645    0.0000 O   0  0  0  0  0  0  0  0  0  0  0  0
   12.3923   -0.7645    0.0000 N   0  0  0  0  0  0  0  0  0  0  0  0
   13.3385   -1.0692    0.0000 N   0  0  0  0  0  0  0  0  0  0  0  0
   11.5263    0.7355    0.0000 N   0  0  0  0  0  0  0  0  0  0  0  0
   14.6025    2.7981    0.0000 N   0  0  0  0  0  0  0  0  0  0  0  0
   11.5263   -2.2645    0.0000 N   0  0  0  0  0  0  0  0  0  0  0  0
   13.6520    3.1088    0.0000 N   0  0  0  0  0  0  0  0  0  0  0  0
    7.1962   -2.7645    0.0000 N   0  0  0  0  0  0  0  0  0  0  0  0
    5.4641   -2.7645    0.0000 N   0  0  0  0  0  0  0  0  0  0  0  0
   12.3923    0.2355    0.0000 C   0  0  0  0  0  0  0  0  0  0  0  0
   13.3385    0.5402    0.0000 C   0  0  0  0  0  0  0  0  0  0  0  0
   10.6603   -0.7645    0.0000 C   0  0  0  0  0  0  0  0  0  0  0  0
   11.5263   -1.2645    0.0000 C   0  0  0  0  0  0  0  0  0  0  0  0
   13.6492    1.4908    0.0000 C   0  0  0  0  0  0  0  0  0  0  0  0
    9.7942   -1.2645    0.0000 C   0  0  0  0  0  0  0  0  0  0  0  0
   13.9221   -0.2645    0.0000 C   0  0  0  0  0  0  0  0  0  0  0  0
   10.6603    0.2355    0.0000 C   0  0  0  0  0  0  0  0  0  0  0  0
   14.6008    1.7981    0.0000 C   0  0  0  0  0  0  0  0  0  0  0  0
    8.9282   -0.7645    0.0000 C   0  0  0  0  0  0  0  0  0  0  0  0
    9.7942   -2.2645    0.0000 C   0  0  0  0  0  0  0  0  0  0  0  0
   13.0628    2.3008    0.0000 C   0  0  0  0  0  0  0  0  0  0  0  0
    8.0622   -2.2645    0.0000 C   0  0  0  0  0  0  0  0  0  0  0  0
    8.0622   -1.2645    0.0000 C   0  0  0  0  0  0  0  0  0  0  0  0
    8.9282   -2.7645    0.0000 C   0  0  0  0  0  0  0  0  0  0  0  0
   15.4125    3.3845    0.0000 C   0  0  0  0  0  0  0  0  0  0  0  0
    4.5981   -2.2645    0.0000 C   0  0  0  0  0  0  0  0  0  0  0  0
    6.3301   -2.2645    0.0000 C   0  0  0  0  0  0  0  0  0  0  0  0
    2.8660   -2.2645    0.0000 C   0  0  0  0  0  0  0  0  0  0  0  0
    3.7320   -2.7645    0.0000 C   0  0  0  0  0  0  0  0  0  0  0  0
    4.5981   -1.2645    0.0000 C   0  0  0  0  0  0  0  0  0  0  0  0
    2.8660   -1.2645    0.0000 C   0  0  0  0  0  0  0  0  0  0  0  0
    3.7320   -0.7645    0.0000 C   0  0  0  0  0  0  0  0  0  0  0  0
    2.0000   -2.7645    0.0000 C   0  0  0  0  0  0  0  0  0  0  0  0
   14.5421   -0.2645    0.0000 H   0  0  0  0  0  0  0  0  0  0  0  0
   10.1233    0.5455    0.0000 H   0  0  0  0  0  0  0  0  0  0  0  0
   15.1017    1.4328    0.0000 H   0  0  0  0  0  0  0  0  0  0  0  0
    8.9282   -0.1445    0.0000 H   0  0  0  0  0  0  0  0  0  0  0  0
   10.3312   -2.5745    0.0000 H   0  0  0  0  0  0  0  0  0  0  0  0
   12.4428    2.3019    0.0000 H   0  0  0  0  0  0  0  0  0  0  0  0
   12.0632   -2.5745    0.0000 H   0  0  0  0  0  0  0  0  0  0  0  0
   10.9893   -2.5745    0.0000 H   0  0  0  0  0  0  0  0  0  0  0  0
    7.5252   -0.9545    0.0000 H   0  0  0  0  0  0  0  0  0  0  0  0
    8.9282   -3.3845    0.0000 H   0  0  0  0  0  0  0  0  0  0  0  0
    7.1962   -3.3845    0.0000 H   0  0  0  0  0  0  0  0  0  0  0  0
   15.7761    2.8823    0.0000 H   0  0  0  0  0  0  0  0  0  0  0  0
   15.9148    3.7481    0.0000 H   0  0  0  0  0  0  0  0  0  0  0  0
   15.0490    3.8867    0.0000 H   0  0  0  0  0  0  0  0  0  0  0  0
    5.4641   -3.3845    0.0000 H   0  0  0  0  0  0  0  0  0  0  0  0
    3.7320   -3.3845    0.0000 H   0  0  0  0  0  0  0  0  0  0  0  0
    5.1350   -0.9545    0.0000 H   0  0  0  0  0  0  0  0  0  0  0  0
    2.3291   -0.9545    0.0000 H   0  0  0  0  0  0  0  0  0  0  0  0
    3.7320   -0.1445    0.0000 H   0  0  0  0  0  0  0  0  0  0  0  0
    1.6900   -2.2276    0.0000 H   0  0  0  0  0  0  0  0  0  0  0  0
    1.4631   -3.0745    0.0000 H   0  0  0  0  0  0  0  0  0  0  0  0
    2.3100   -3.3014    0.0000 H   0  0  0  0  0  0  0  0  0  0  0  0
  1 27  2  0  0  0  0
  2  3  1  0  0  0  0
  2 10  1  0  0  0  0
  2 13  1  0  0  0  0
  3 16  2  0  0  0  0
  4 10  1  0  0  0  0
  4 17  2  0  0  0  0
  5  7  1  0  0  0  0
  5 18  1  0  0  0  0
  5 25  1  0  0  0  0
  6 13  1  0  0  0  0
  6 40  1  0  0  0  0
  6 41  1  0  0  0  0
  7 21  2  0  0  0  0
  8 22  1  0  0  0  0
  8 27  1  0  0  0  0
  8 44  1  0  0  0  0
  9 26  1  0  0  0  0
  9 27  1  0  0  0  0
  9 48  1  0  0  0  0
 10 11  2  0  0  0  0
 11 14  1  0  0  0  0
 11 16  1  0  0  0  0
 12 13  2  0  0  0  0
 12 15  1  0  0  0  0
 12 17  1  0  0  0  0
 14 18  2  0  0  0  0
 14 21  1  0  0  0  0
 15 19  2  0  0  0  0
 15 20  1  0  0  0  0
 16 34  1  0  0  0  0
 17 35  1  0  0  0  0
 18 36  1  0  0  0  0
 19 23  1  0  0  0  0
 19 37  1  0  0  0  0
 20 24  2  0  0  0  0
 20 38  1  0  0  0  0
 21 39  1  0  0  0  0
 22 23  2  0  0  0  0
 22 24  1  0  0  0  0
 23 42  1  0  0  0  0
 24 43  1  0  0  0  0
 25 45  1  0  0  0  0
 25 46  1  0  0  0  0
 25 47  1  0  0  0  0
 26 29  1  0  0  0  0
 26 30  2  0  0  0  0
 28 29  2  0  0  0  0
 28 31  1  0  0  0  0
 28 33  1  0  0  0  0
 29 49  1  0  0  0  0
 30 32  1  0  0  0  0
 30 50  1  0  0  0  0
 31 32  2  0  0  0  0
 31 51  1  0  0  0  0
 32 52  1  0  0  0  0
 33 53  1  0  0  0  0
 33 54  1  0  0  0  0
 33 55  1  0  0  0  0
M  END
> <PUBCHEM_COMPOUND_CID>
24894620

> <PUBCHEM_COMPOUND_CANONICALIZED>
1

> <PUBCHEM_CACTVS_COMPLEXITY>
671

> <PUBCHEM_CACTVS_HBOND_ACCEPTOR>
5

> <PUBCHEM_CACTVS_HBOND_DONOR>
3

> <PUBCHEM_CACTVS_ROTATABLE_BOND>
4

> <PUBCHEM_CACTVS_SUBSKEYS>
AAADceB74AAAAAAAAAAAAAAAAAAAAWLAAAA8YIAAAAAAAFgB/AAAHgAYAAAADAjBGwQ/8J7IEACqAjZndACShCsxgqAd2CAoZJiIKOLA2dGEpAh4nALIyCcQgMAOiAAAQAAAAAAQAACAAAAAAAAAAAAAAA==

> <PUBCHEM_IUPAC_OPENEYE_NAME>
1-[4-[7-amino-3-(1-methylpyrazol-4-yl)pyrazolo[1,5-a]pyrimidin-6-yl]phenyl]-3-(m-tolyl)urea

> <PUBCHEM_IUPAC_CAS_NAME>
1-[4-[7-amino-3-(1-methyl-4-pyrazolyl)-6-pyrazolo[1,5-a]pyrimidinyl]phenyl]-3-(3-methylphenyl)urea

> <PUBCHEM_IUPAC_NAME_MARKUP>
1-[4-[7-amino-3-(1-methylpyrazol-4-yl)pyrazolo[1,5-a]pyrimidin-6-yl]phenyl]-3-(3-methylphenyl)urea

> <PUBCHEM_IUPAC_NAME>
1-[4-[7-amino-3-(1-methylpyrazol-4-yl)pyrazolo[1,5-a]pyrimidin-6-yl]phenyl]-3-(3-methylphenyl)urea

> <PUBCHEM_IUPAC_SYSTEMATIC_NAME>
1-[4-[7-azanyl-3-(1-methylpyrazol-4-yl)pyrazolo[1,5-a]pyrimidin-6-yl]phenyl]-3-(3-methylphenyl)urea

> <PUBCHEM_IUPAC_TRADITIONAL_NAME>
1-[4-[7-amino-3-(1-methylpyrazol-4-yl)pyrazolo[1,5-a]pyrimidin-6-yl]phenyl]-3-(m-tolyl)urea

> <PUBCHEM_IUPAC_INCHI>
InChI=1S/C24H22N8O/c1-15-4-3-5-19(10-15)30-24(33)29-18-8-6-16(7-9-18)20-12-26-23-21(13-28-32(23)22(20)25)17-11-27-31(2)14-17/h3-14H,25H2,1-2H3,(H2,29,30,33)

> <PUBCHEM_IUPAC_INCHIKEY>
ZGDSBEUMPIMXBM-UHFFFAOYSA-N

> <PUBCHEM_XLOGP3_AA>
2.5

> <PUBCHEM_EXACT_MASS>
438.19165736

> <PUBCHEM_MOLECULAR_FORMULA>
C24H22N8O

> <PUBCHEM_MOLECULAR_WEIGHT>
438.5

> <PUBCHEM_SMILES>
CC1=CC(=CC=C1)NC(=O)NC2=CC=C(C=C2)C3=C(N4C(=C(C=N4)C5=CN(N=C5)C)N=C3)N

> <PUBCHEM_OPENEYE_CAN_SMILES>
CC1=CC(=CC=C1)NC(=O)NC2=CC=C(C=C2)C3=C(N4C(=C(C=N4)C5=CN(N=C5)C)N=C3)N

> <PUBCHEM_OPENEYE_ISO_SMILES>
CC1=CC(=CC=C1)NC(=O)NC2=CC=C(C=C2)C3=C(N4C(=C(C=N4)C5=CN(N=C5)C)N=C3)N

> <PUBCHEM_CACTVS_TPSA>
115

> <PUBCHEM_MONOISOTOPIC_WEIGHT>
438.19165736

> <PUBCHEM_TOTAL_CHARGE>
0

> <PUBCHEM_HEAVY_ATOM_COUNT>
33

> <PUBCHEM_ATOM_DEF_STEREO_COUNT>
0

> <PUBCHEM_ATOM_UDEF_STEREO_COUNT>
0

> <PUBCHEM_BOND_DEF_STEREO_COUNT>
0

> <PUBCHEM_BOND_UDEF_STEREO_COUNT>
0

> <PUBCHEM_ISOTOPIC_ATOM_COUNT>
0

> <PUBCHEM_COMPONENT_COUNT>
1

> <PUBCHEM_CACTVS_TAUTO_COUNT>
-1

> <PUBCHEM_COORDINATE_TYPE>
1
5
255

> <PUBCHEM_BONDANNOTATIONS>
10  11  8
11  16  8
12  13  8
12  17  8
14  18  8
14  21  8
15  19  8
15  20  8
19  23  8
2  10  8
2  13  8
2  3  8
20  24  8
22  23  8
22  24  8
26  29  8
26  30  8
28  29  8
28  31  8
3  16  8
30  32  8
31  32  8
4  10  8
4  17  8
5  18  8
5  7  8
7  21  8

$$$$
