44364260
  -OEChem-03202506182D

 65 73  0     1  0  0  0  0  0999 V2000
    3.6204   -2.4777    0.0000 O   0  0  0  0  0  0  0  0  0  0  0  0
    2.7093    0.9225    0.0000 O   0  0  0  0  0  0  0  0  0  0  0  0
    1.9296   -1.1086    0.0000 O   0  0  0  0  0  0  0  0  0  0  0  0
    9.4738   -3.7968    0.0000 O   0  0  0  0  0  0  0  0  0  0  0  0
   10.6974   -0.4351    0.0000 O   0  0  0  0  0  0  0  0  0  0  0  0
    5.4222    1.2641    0.0000 N   0  0  0  0  0  0  0  0  0  0  0  0
    6.0202   -1.7005    0.0000 N   0  0  0  0  0  0  0  0  0  0  0  0
    6.7042    0.1789    0.0000 N   0  0  0  0  0  0  0  0  0  0  0  0
   10.3649   -2.2176    0.0000 N   0  0  0  0  0  0  0  0  0  0  0  0
    4.9444   -0.6844    0.0000 C   0  0  2  0  0  0  0  0  0  0  0  0
    4.6856    0.2815    0.0000 C   0  0  1  0  0  0  0  0  0  0  0  0
    3.6727   -1.4791    0.0000 C   0  0  1  0  0  0  0  0  0  0  0  0
    3.2539    0.0838    0.0000 C   0  0  2  0  0  0  0  0  0  0  0  0
    2.8956   -0.8497    0.0000 C   0  0  0  0  0  0  0  0  0  0  0  0
    7.0050   -1.5268    0.0000 C   0  0  0  0  0  0  0  0  0  0  0  0
    7.3470   -0.5871    0.0000 C   0  0  0  0  0  0  0  0  0  0  0  0
    7.6622   -2.3350    0.0000 C   0  0  0  0  0  0  0  0  0  0  0  0
    8.3699   -0.3904    0.0000 C   0  0  0  0  0  0  0  0  0  0  0  0
    6.0472   -2.6939    0.0000 C   0  0  0  0  0  0  0  0  0  0  0  0
    7.3635    0.9226    0.0000 C   0  0  0  0  0  0  0  0  0  0  0  0
    5.9222    2.1302    0.0000 C   0  0  0  0  0  0  0  0  0  0  0  0
    6.9742   -3.0521    0.0000 C   0  0  0  0  0  0  0  0  0  0  0  0
    8.3039    0.6012    0.0000 C   0  0  0  0  0  0  0  0  0  0  0  0
    8.6893   -2.1620    0.0000 C   0  0  0  0  0  0  0  0  0  0  0  0
    9.0456   -1.1832    0.0000 C   0  0  0  0  0  0  0  0  0  0  0  0
    5.4222    2.9962    0.0000 C   0  0  0  0  0  0  0  0  0  0  0  0
    5.2313   -3.3311    0.0000 C   0  0  0  0  0  0  0  0  0  0  0  0
    7.1480    1.9352    0.0000 C   0  0  0  0  0  0  0  0  0  0  0  0
    7.1496   -4.0724    0.0000 C   0  0  0  0  0  0  0  0  0  0  0  0
    9.0940    1.2700    0.0000 C   0  0  0  0  0  0  0  0  0  0  0  0
    9.5070   -2.7974    0.0000 C   0  0  0  0  0  0  0  0  0  0  0  0
   10.0803   -1.2220    0.0000 C   0  0  0  0  0  0  0  0  0  0  0  0
    5.3830   -4.3551    0.0000 C   0  0  0  0  0  0  0  0  0  0  0  0
    7.9225    2.6220    0.0000 C   0  0  0  0  0  0  0  0  0  0  0  0
    6.3486   -4.7282    0.0000 C   0  0  0  0  0  0  0  0  0  0  0  0
    8.9020    2.2872    0.0000 C   0  0  0  0  0  0  0  0  0  0  0  0
    5.9222    3.8622    0.0000 C   0  0  0  0  0  0  0  0  0  0  0  0
    4.4222    2.9962    0.0000 C   0  0  0  0  0  0  0  0  0  0  0  0
    5.4222    4.7282    0.0000 C   0  0  0  0  0  0  0  0  0  0  0  0
    3.9222    3.8622    0.0000 C   0  0  0  0  0  0  0  0  0  0  0  0
    4.4222    4.7282    0.0000 C   0  0  0  0  0  0  0  0  0  0  0  0
    5.1644   -1.5054    0.0000 H   0  0  0  0  0  0  0  0  0  0  0  0
    4.4656    1.1026    0.0000 H   0  0  0  0  0  0  0  0  0  0  0  0
    3.1063   -1.7312    0.0000 H   0  0  0  0  0  0  0  0  0  0  0  0
    2.6373    0.0190    0.0000 H   0  0  0  0  0  0  0  0  0  0  0  0
    2.4807   -0.3890    0.0000 H   0  0  0  0  0  0  0  0  0  0  0  0
    6.3971    2.5287    0.0000 H   0  0  0  0  0  0  0  0  0  0  0  0
    6.3971    1.7316    0.0000 H   0  0  0  0  0  0  0  0  0  0  0  0
    3.0680   -2.7592    0.0000 H   0  0  0  0  0  0  0  0  0  0  0  0
    2.0902    0.8901    0.0000 H   0  0  0  0  0  0  0  0  0  0  0  0
    1.4912   -0.6701    0.0000 H   0  0  0  0  0  0  0  0  0  0  0  0
    4.6556   -3.1009    0.0000 H   0  0  0  0  0  0  0  0  0  0  0  0
    6.5591    2.1289    0.0000 H   0  0  0  0  0  0  0  0  0  0  0  0
    7.7304   -4.2892    0.0000 H   0  0  0  0  0  0  0  0  0  0  0  0
    9.6783    1.0627    0.0000 H   0  0  0  0  0  0  0  0  0  0  0  0
   10.9475   -2.4297    0.0000 H   0  0  0  0  0  0  0  0  0  0  0  0
    4.8989   -4.7423    0.0000 H   0  0  0  0  0  0  0  0  0  0  0  0
    7.8005    3.2299    0.0000 H   0  0  0  0  0  0  0  0  0  0  0  0
    6.4466   -5.3404    0.0000 H   0  0  0  0  0  0  0  0  0  0  0  0
    9.3706    2.6932    0.0000 H   0  0  0  0  0  0  0  0  0  0  0  0
    6.5422    3.8622    0.0000 H   0  0  0  0  0  0  0  0  0  0  0  0
    4.1122    2.4592    0.0000 H   0  0  0  0  0  0  0  0  0  0  0  0
    5.7322    5.2652    0.0000 H   0  0  0  0  0  0  0  0  0  0  0  0
    3.3022    3.8622    0.0000 H   0  0  0  0  0  0  0  0  0  0  0  0
    4.1122    5.2652    0.0000 H   0  0  0  0  0  0  0  0  0  0  0  0
 12  1  1  6  0  0  0
  1 49  1  0  0  0  0
 13  2  1  6  0  0  0
  2 50  1  0  0  0  0
  3 14  1  0  0  0  0
  3 51  1  0  0  0  0
  4 31  2  0  0  0  0
  5 32  2  0  0  0  0
  6 10  1  0  0  0  0
  6 11  1  0  0  0  0
  6 21  1  0  0  0  0
  7 10  1  0  0  0  0
  7 15  1  0  0  0  0
  7 19  1  0  0  0  0
  8 11  1  0  0  0  0
  8 16  1  0  0  0  0
  8 20  1  0  0  0  0
  9 31  1  0  0  0  0
  9 32  1  0  0  0  0
  9 56  1  0  0  0  0
 10 12  1  0  0  0  0
 10 42  1  1  0  0  0
 11 13  1  0  0  0  0
 11 43  1  6  0  0  0
 12 14  1  0  0  0  0
 12 44  1  0  0  0  0
 13 14  1  0  0  0  0
 13 45  1  0  0  0  0
 14 46  1  0  0  0  0
 15 16  2  0  0  0  0
 15 17  1  0  0  0  0
 16 18  1  0  0  0  0
 17 22  1  0  0  0  0
 17 24  2  0  0  0  0
 18 23  1  0  0  0  0
 18 25  2  0  0  0  0
 19 22  1  0  0  0  0
 19 27  2  0  0  0  0
 20 23  1  0  0  0  0
 20 28  2  0  0  0  0
 21 26  1  0  0  0  0
 21 47  1  0  0  0  0
 21 48  1  0  0  0  0
 22 29  2  0  0  0  0
 23 30  2  0  0  0  0
 24 25  1  0  0  0  0
 24 31  1  0  0  0  0
 25 32  1  0  0  0  0
 26 37  2  0  0  0  0
 26 38  1  0  0  0  0
 27 33  1  0  0  0  0
 27 52  1  0  0  0  0
 28 34  1  0  0  0  0
 28 53  1  0  0  0  0
 29 35  1  0  0  0  0
 29 54  1  0  0  0  0
 30 36  1  0  0  0  0
 30 55  1  0  0  0  0
 33 35  2  0  0  0  0
 33 57  1  0  0  0  0
 34 36  2  0  0  0  0
 34 58  1  0  0  0  0
 35 59  1  0  0  0  0
 36 60  1  0  0  0  0
 37 39  1  0  0  0  0
 37 61  1  0  0  0  0
 38 40  2  0  0  0  0
 38 62  1  0  0  0  0
 39 41  2  0  0  0  0
 39 63  1  0  0  0  0
 40 41  1  0  0  0  0
 40 64  1  0  0  0  0
 41 65  1  0  0  0  0
M  END
> <PUBCHEM_COMPOUND_CID>
44364260

> <PUBCHEM_COMPOUND_CANONICALIZED>
1

> <PUBCHEM_CACTVS_COMPLEXITY>
1030

> <PUBCHEM_CACTVS_HBOND_ACCEPTOR>
6

> <PUBCHEM_CACTVS_HBOND_DONOR>
4

> <PUBCHEM_CACTVS_ROTATABLE_BOND>
2

> <PUBCHEM_CACTVS_SUBSKEYS>
AAADceB/uAAAAAAAAAAAAAAAAAAAAWLFgAA8YMGCBYAAAFix/gAAHgAQCAAADBzhngYxwPPMEgCoAyVyVACCgCQlEiAI2CE4dNiLcPLAlZGUYQhvhCLZySc9icCeyAACQAASACCQAASAACQAQAAAAAAAAA==

> <PUBCHEM_IUPAC_OPENEYE_NAME>
(2S,3S,5R,6R)-29-benzyl-3,4,5-trihydroxy-1,7,17,29-tetrazaoctacyclo[12.12.2.12,6.07,28.08,13.015,19.020,27.021,26]nonacosa-8,10,12,14,19,21,23,25,27-nonaene-16,18-dione

> <PUBCHEM_IUPAC_CAS_NAME>
(2S,3S,5R,6R)-3,4,5-trihydroxy-29-(phenylmethyl)-1,7,17,29-tetrazaoctacyclo[12.12.2.12,6.07,28.08,13.015,19.020,27.021,26]nonacosa-8,10,12,14,19,21,23,25,27-nonaene-16,18-dione

> <PUBCHEM_IUPAC_NAME_MARKUP>
(2<I>S</I>,3<I>S</I>,5<I>R</I>,6<I>R</I>)-29-benzyl-3,4,5-trihydroxy-1,7,17,29-tetrazaoctacyclo[12.12.2.1<SUP>2,6</SUP>.0<SUP>7,28</SUP>.0<SUP>8,13</SUP>.0<SUP>15,19</SUP>.0<SUP>20,27</SUP>.0<SUP>21,26</SUP>]nonacosa-8,10,12,14,19,21,23,25,27-nonaene-16,18-dione

> <PUBCHEM_IUPAC_NAME>
(2S,3S,5R,6R)-29-benzyl-3,4,5-trihydroxy-1,7,17,29-tetrazaoctacyclo[12.12.2.12,6.07,28.08,13.015,19.020,27.021,26]nonacosa-8,10,12,14,19,21,23,25,27-nonaene-16,18-dione

> <PUBCHEM_IUPAC_SYSTEMATIC_NAME>
(2S,3S,5R,6R)-3,4,5-tris(oxidanyl)-29-(phenylmethyl)-1,7,17,29-tetrazaoctacyclo[12.12.2.12,6.07,28.08,13.015,19.020,27.021,26]nonacosa-8,10,12,14,19,21,23,25,27-nonaene-16,18-dione

> <PUBCHEM_IUPAC_TRADITIONAL_NAME>
(2S,3S,5R,6R)-29-benzyl-3,4,5-trihydroxy-1,7,17,29-tetrazaoctacyclo[12.12.2.12,6.07,28.08,13.015,19.020,27.021,26]nonacosa-8,10,12,14,19,21,23,25,27-nonaene-16,18-quinone

> <PUBCHEM_IUPAC_INCHI>
InChI=1S/C32H24N4O5/c37-26-27(38)31-34(14-15-8-2-1-3-9-15)32(28(26)39)36-19-13-7-5-11-17(19)21-23-22(29(40)33-30(23)41)20-16-10-4-6-12-18(16)35(31)24(20)25(21)36/h1-13,26-28,31-32,37-39H,14H2,(H,33,40,41)/t26?,27-,28+,31-,32+

> <PUBCHEM_IUPAC_INCHIKEY>
WHHFUFNTCNIOSZ-GYXOOGIZSA-N

> <PUBCHEM_XLOGP3_AA>
2.9

> <PUBCHEM_EXACT_MASS>
544.17466988

> <PUBCHEM_MOLECULAR_FORMULA>
C32H24N4O5

> <PUBCHEM_MOLECULAR_WEIGHT>
544.6

> <PUBCHEM_SMILES>
C1=CC=C(C=C1)CN2[C@@H]3[C@H](C([C@H]([C@H]2N4C5=CC=CC=C5C6=C7C(=C8C9=CC=CC=C9N3C8=C64)C(=O)NC7=O)O)O)O

> <PUBCHEM_OPENEYE_CAN_SMILES>
C1=CC=C(C=C1)CN2C3C(C(C(C2N4C5=CC=CC=C5C6=C7C(=C8C9=CC=CC=C9N3C8=C64)C(=O)NC7=O)O)O)O

> <PUBCHEM_OPENEYE_ISO_SMILES>
C1=CC=C(C=C1)CN2[C@@H]3[C@H](C([C@H]([C@H]2N4C5=CC=CC=C5C6=C7C(=C8C9=CC=CC=C9N3C8=C64)C(=O)NC7=O)O)O)O

> <PUBCHEM_CACTVS_TPSA>
120

> <PUBCHEM_MONOISOTOPIC_WEIGHT>
544.17466988

> <PUBCHEM_TOTAL_CHARGE>
0

> <PUBCHEM_HEAVY_ATOM_COUNT>
41

> <PUBCHEM_ATOM_DEF_STEREO_COUNT>
4

> <PUBCHEM_ATOM_UDEF_STEREO_COUNT>
0

> <PUBCHEM_BOND_DEF_STEREO_COUNT>
0

> <PUBCHEM_BOND_UDEF_STEREO_COUNT>
0

> <PUBCHEM_ISOTOPIC_ATOM_COUNT>
0

> <PUBCHEM_COMPONENT_COUNT>
1

> <PUBCHEM_CACTVS_TAUTO_COUNT>
-1

> <PUBCHEM_COORDINATE_TYPE>
1
5
255

> <PUBCHEM_BONDANNOTATIONS>
12  1  6
10  42  5
11  43  6
15  16  8
15  17  8
16  18  8
17  22  8
17  24  8
18  23  8
18  25  8
19  22  8
19  27  8
13  2  6
20  23  8
20  28  8
22  29  8
23  30  8
24  25  8
26  37  8
26  38  8
27  33  8
28  34  8
29  35  8
30  36  8
33  35  8
34  36  8
37  39  8
38  40  8
39  41  8
40  41  8
7  15  8
7  19  8
8  16  8
8  20  8

$$$$
