17758019
  -OEChem-03202504522D

 41 44  0     0  0  0  0  0  0999 V2000
    7.7120   -3.0173    0.0000 Br  0  0  0  0  0  0  0  0  0  0  0  0
   12.9245    1.0173    0.0000 Cl  0  0  0  0  0  0  0  0  0  0  0  0
   12.9245    3.0173    0.0000 F   0  0  0  0  0  0  0  0  0  0  0  0
    5.9302    0.0414    0.0000 N   0  0  0  0  0  0  0  0  0  0  0  0
    9.4604    1.0173    0.0000 N   0  0  0  0  0  0  0  0  0  0  0  0
    9.4604   -1.9827    0.0000 N   0  0  0  0  0  0  0  0  0  0  0  0
    3.2831   -0.3551    0.0000 N   0  0  0  0  0  0  0  0  0  0  0  0
    2.6168    0.3906    0.0000 N   0  0  0  0  0  0  0  0  0  0  0  0
    3.1202    1.2547    0.0000 N   0  0  0  0  0  0  0  0  0  0  0  0
   12.0585    0.5173    0.0000 N   0  0  0  0  0  0  0  0  0  0  0  0
    8.5944   -0.4827    0.0000 C   0  0  0  0  0  0  0  0  0  0  0  0
    9.4604    0.0173    0.0000 C   0  0  0  0  0  0  0  0  0  0  0  0
    8.5944   -1.4827    0.0000 C   0  0  0  0  0  0  0  0  0  0  0  0
    6.7944   -0.4619    0.0000 C   0  0  0  0  0  0  0  0  0  0  0  0
    7.7004    0.0520    0.0000 C   0  0  0  0  0  0  0  0  0  0  0  0
    7.7004   -2.0174    0.0000 C   0  0  0  0  0  0  0  0  0  0  0  0
    6.7944   -1.5035    0.0000 C   0  0  0  0  0  0  0  0  0  0  0  0
   10.3264   -0.4827    0.0000 C   0  0  0  0  0  0  0  0  0  0  0  0
    5.0623   -0.4552    0.0000 C   0  0  0  0  0  0  0  0  0  0  0  0
   10.3264    1.5173    0.0000 C   0  0  0  0  0  0  0  0  0  0  0  0
   10.3264   -1.4827    0.0000 C   0  0  0  0  0  0  0  0  0  0  0  0
    4.1982    0.0481    0.0000 C   0  0  0  0  0  0  0  0  0  0  0  0
   11.1924    1.0173    0.0000 C   0  0  0  0  0  0  0  0  0  0  0  0
   10.3264    2.5173    0.0000 C   0  0  0  0  0  0  0  0  0  0  0  0
   12.0585    1.5173    0.0000 C   0  0  0  0  0  0  0  0  0  0  0  0
   11.1924    3.0173    0.0000 C   0  0  0  0  0  0  0  0  0  0  0  0
   11.1924    0.0173    0.0000 C   0  0  0  0  0  0  0  0  0  0  0  0
    4.0975    1.0430    0.0000 C   0  0  0  0  0  0  0  0  0  0  0  0
   12.0585    2.5173    0.0000 C   0  0  0  0  0  0  0  0  0  0  0  0
    7.7076    0.6719    0.0000 H   0  0  0  0  0  0  0  0  0  0  0  0
    6.2586   -1.8156    0.0000 H   0  0  0  0  0  0  0  0  0  0  0  0
    5.9326    0.6614    0.0000 H   0  0  0  0  0  0  0  0  0  0  0  0
    8.9234    1.3273    0.0000 H   0  0  0  0  0  0  0  0  0  0  0  0
    4.6620   -0.9286    0.0000 H   0  0  0  0  0  0  0  0  0  0  0  0
    5.4590   -0.9317    0.0000 H   0  0  0  0  0  0  0  0  0  0  0  0
   10.8633   -1.7927    0.0000 H   0  0  0  0  0  0  0  0  0  0  0  0
   11.1924    0.3973    0.0000 H   0  0  0  0  0  0  0  0  0  0  0  0
    9.7895    2.8273    0.0000 H   0  0  0  0  0  0  0  0  0  0  0  0
   11.1924    3.6373    0.0000 H   0  0  0  0  0  0  0  0  0  0  0  0
    4.5599    1.4561    0.0000 H   0  0  0  0  0  0  0  0  0  0  0  0
    2.0000    0.3282    0.0000 H   0  0  0  0  0  0  0  0  0  0  0  0
  1 16  1  0  0  0  0
  2 25  1  0  0  0  0
  3 29  1  0  0  0  0
  4 14  1  0  0  0  0
  4 19  1  0  0  0  0
  4 32  1  0  0  0  0
  5 12  1  0  0  0  0
  5 20  1  0  0  0  0
  5 33  1  0  0  0  0
  6 13  2  0  0  0  0
  6 21  1  0  0  0  0
  7  8  1  0  0  0  0
  7 22  2  0  0  0  0
  8  9  1  0  0  0  0
  8 41  1  0  0  0  0
  9 28  2  0  0  0  0
 10 27  3  0  0  0  0
 11 12  2  0  0  0  0
 11 13  1  0  0  0  0
 11 15  1  0  0  0  0
 12 18  1  0  0  0  0
 13 16  1  0  0  0  0
 14 15  2  0  0  0  0
 14 17  1  0  0  0  0
 15 30  1  0  0  0  0
 16 17  2  0  0  0  0
 17 31  1  0  0  0  0
 18 21  2  0  0  0  0
 18 27  1  0  0  0  0
 19 22  1  0  0  0  0
 19 34  1  0  0  0  0
 19 35  1  0  0  0  0
 20 23  2  0  0  0  0
 20 24  1  0  0  0  0
 21 36  1  0  0  0  0
 22 28  1  0  0  0  0
 23 25  1  0  0  0  0
 23 37  1  0  0  0  0
 24 26  2  0  0  0  0
 24 38  1  0  0  0  0
 25 29  2  0  0  0  0
 26 29  1  0  0  0  0
 26 39  1  0  0  0  0
 28 40  1  0  0  0  0
M  END
> <PUBCHEM_COMPOUND_CID>
17758019

> <PUBCHEM_COMPOUND_CANONICALIZED>
1

> <PUBCHEM_CACTVS_COMPLEXITY>
606

> <PUBCHEM_CACTVS_HBOND_ACCEPTOR>
7

> <PUBCHEM_CACTVS_HBOND_DONOR>
3

> <PUBCHEM_CACTVS_ROTATABLE_BOND>
5

> <PUBCHEM_CACTVS_SUBSKEYS>
AAADccB7gQAEEAAAAAAAAAAAAAAAAWAAAAA8YIAAAAAAAACx/AAAHQJYAAABrArBHiw8wPLKEACyBzRnRACihCQxlyQY+KA4drgI4OLB09GUJAhgkADIyh8QgMAOAACAUAMCAAgAAQCgBgQAEAAAAAAAAA==

> <PUBCHEM_IUPAC_OPENEYE_NAME>
8-bromo-4-(3-chloro-4-fluoro-anilino)-6-(2H-triazol-4-ylmethylamino)quinoline-3-carbonitrile

> <PUBCHEM_IUPAC_CAS_NAME>
8-bromo-4-(3-chloro-4-fluoroanilino)-6-(2H-triazol-4-ylmethylamino)-3-quinolinecarbonitrile

> <PUBCHEM_IUPAC_NAME_MARKUP>
8-bromo-4-(3-chloro-4-fluoroanilino)-6-(2<I>H</I>-triazol-4-ylmethylamino)quinoline-3-carbonitrile

> <PUBCHEM_IUPAC_NAME>
8-bromo-4-(3-chloro-4-fluoroanilino)-6-(2H-triazol-4-ylmethylamino)quinoline-3-carbonitrile

> <PUBCHEM_IUPAC_SYSTEMATIC_NAME>
8-bromanyl-4-[(3-chloranyl-4-fluoranyl-phenyl)amino]-6-(2H-1,2,3-triazol-4-ylmethylamino)quinoline-3-carbonitrile

> <PUBCHEM_IUPAC_TRADITIONAL_NAME>
8-bromo-4-(3-chloro-4-fluoro-anilino)-6-(2H-triazol-4-ylmethylamino)quinoline-3-carbonitrile

> <PUBCHEM_IUPAC_INCHI>
InChI=1S/C19H12BrClFN7/c20-15-4-12(24-8-13-9-26-29-28-13)3-14-18(10(6-23)7-25-19(14)15)27-11-1-2-17(22)16(21)5-11/h1-5,7,9,24H,8H2,(H,25,27)(H,26,28,29)

> <PUBCHEM_IUPAC_INCHIKEY>
KEZDJRADZYWSSG-UHFFFAOYSA-N

> <PUBCHEM_XLOGP3_AA>
4.6

> <PUBCHEM_EXACT_MASS>
471.00101

> <PUBCHEM_MOLECULAR_FORMULA>
C19H12BrClFN7

> <PUBCHEM_MOLECULAR_WEIGHT>
472.7

> <PUBCHEM_SMILES>
C1=CC(=C(C=C1NC2=C3C=C(C=C(C3=NC=C2C#N)Br)NCC4=NNN=C4)Cl)F

> <PUBCHEM_OPENEYE_CAN_SMILES>
C1=CC(=C(C=C1NC2=C3C=C(C=C(C3=NC=C2C#N)Br)NCC4=NNN=C4)Cl)F

> <PUBCHEM_OPENEYE_ISO_SMILES>
C1=CC(=C(C=C1NC2=C3C=C(C=C(C3=NC=C2C#N)Br)NCC4=NNN=C4)Cl)F

> <PUBCHEM_CACTVS_TPSA>
102

> <PUBCHEM_MONOISOTOPIC_WEIGHT>
471.00101

> <PUBCHEM_TOTAL_CHARGE>
0

> <PUBCHEM_HEAVY_ATOM_COUNT>
29

> <PUBCHEM_ATOM_DEF_STEREO_COUNT>
0

> <PUBCHEM_ATOM_UDEF_STEREO_COUNT>
0

> <PUBCHEM_BOND_DEF_STEREO_COUNT>
0

> <PUBCHEM_BOND_UDEF_STEREO_COUNT>
0

> <PUBCHEM_ISOTOPIC_ATOM_COUNT>
0

> <PUBCHEM_COMPONENT_COUNT>
1

> <PUBCHEM_CACTVS_TAUTO_COUNT>
-1

> <PUBCHEM_COORDINATE_TYPE>
1
5
255

> <PUBCHEM_BONDANNOTATIONS>
11  12  8
11  13  8
11  15  8
12  18  8
13  16  8
14  15  8
14  17  8
16  17  8
18  21  8
20  23  8
20  24  8
22  28  8
23  25  8
24  26  8
25  29  8
26  29  8
6  13  8
6  21  8
7  22  8
7  8  8
8  9  8
9  28  8

$$$$
