24764449
  -OEChem-03202506282D

 69 73  0     0  0  0  0  0  0999 V2000
   14.1189   -0.2994    0.0000 O   0  0  0  0  0  0  0  0  0  0  0  0
   10.0896    2.9594    0.0000 O   0  0  0  0  0  0  0  0  0  0  0  0
    8.9962    1.2958    0.0000 O   0  0  0  0  0  0  0  0  0  0  0  0
    6.3981   -2.2042    0.0000 O   0  0  0  0  0  0  0  0  0  0  0  0
    2.8680   -5.2284    0.0000 O   0  0  0  0  0  0  0  0  0  0  0  0
   12.3109    1.6322    0.0000 N   0  0  0  0  0  0  0  0  0  0  0  0
   11.8109    2.4982    0.0000 N   0  0  0  0  0  0  0  0  0  0  0  0
    9.8622   -0.2042    0.0000 N   0  0  0  0  0  0  0  0  0  0  0  0
    8.1301   -0.2042    0.0000 N   0  0  0  0  0  0  0  0  0  0  0  0
    6.3981   -5.2042    0.0000 N   0  0  0  0  0  0  0  0  0  0  0  0
   13.3054    1.5277    0.0000 C   0  0  0  0  0  0  0  0  0  0  0  0
   13.7121    0.6141    0.0000 C   0  0  0  0  0  0  0  0  0  0  0  0
   11.6417    0.8891    0.0000 C   0  0  0  0  0  0  0  0  0  0  0  0
   10.7282    1.2958    0.0000 C   0  0  0  0  0  0  0  0  0  0  0  0
   14.6257    1.0209    0.0000 C   0  0  0  0  0  0  0  0  0  0  0  0
   12.7986    0.2074    0.0000 C   0  0  0  0  0  0  0  0  0  0  0  0
   10.8327    2.2903    0.0000 C   0  0  0  0  0  0  0  0  0  0  0  0
   12.2176    3.4118    0.0000 C   0  0  0  0  0  0  0  0  0  0  0  0
   11.8497   -0.0891    0.0000 C   0  0  0  0  0  0  0  0  0  0  0  0
    9.8622    0.7958    0.0000 C   0  0  0  0  0  0  0  0  0  0  0  0
   11.6298    4.2208    0.0000 C   0  0  0  0  0  0  0  0  0  0  0  0
   13.2121    3.5163    0.0000 C   0  0  0  0  0  0  0  0  0  0  0  0
   12.0366    5.1343    0.0000 C   0  0  0  0  0  0  0  0  0  0  0  0
   13.6189    4.4298    0.0000 C   0  0  0  0  0  0  0  0  0  0  0  0
   13.0311    5.2389    0.0000 C   0  0  0  0  0  0  0  0  0  0  0  0
    8.9962   -0.7042    0.0000 C   0  0  0  0  0  0  0  0  0  0  0  0
    8.9962   -1.7042    0.0000 C   0  0  0  0  0  0  0  0  0  0  0  0
    8.1301   -2.2042    0.0000 C   0  0  0  0  0  0  0  0  0  0  0  0
    7.2641   -1.7042    0.0000 C   0  0  0  0  0  0  0  0  0  0  0  0
    7.2641   -0.7042    0.0000 C   0  0  0  0  0  0  0  0  0  0  0  0
    5.5320   -3.7042    0.0000 C   0  0  0  0  0  0  0  0  0  0  0  0
    6.3981   -3.2042    0.0000 C   0  0  0  0  0  0  0  0  0  0  0  0
    5.5320   -4.7042    0.0000 C   0  0  0  0  0  0  0  0  0  0  0  0
    4.6381   -3.1695    0.0000 C   0  0  0  0  0  0  0  0  0  0  0  0
    4.6381   -5.2389    0.0000 C   0  0  0  0  0  0  0  0  0  0  0  0
    7.2641   -3.7042    0.0000 C   0  0  0  0  0  0  0  0  0  0  0  0
    3.7320   -4.7250    0.0000 C   0  0  0  0  0  0  0  0  0  0  0  0
    3.7320   -3.6834    0.0000 C   0  0  0  0  0  0  0  0  0  0  0  0
    7.2641   -4.7042    0.0000 C   0  0  0  0  0  0  0  0  0  0  0  0
    2.0000   -4.7317    0.0000 C   0  0  0  0  0  0  0  0  0  0  0  0
   13.9070    1.6777    0.0000 H   0  0  0  0  0  0  0  0  0  0  0  0
   13.2621    2.1462    0.0000 H   0  0  0  0  0  0  0  0  0  0  0  0
   14.8779    0.4545    0.0000 H   0  0  0  0  0  0  0  0  0  0  0  0
   15.1921    1.2730    0.0000 H   0  0  0  0  0  0  0  0  0  0  0  0
   14.3735    1.5873    0.0000 H   0  0  0  0  0  0  0  0  0  0  0  0
   12.5464    0.7738    0.0000 H   0  0  0  0  0  0  0  0  0  0  0  0
   12.2322   -0.0448    0.0000 H   0  0  0  0  0  0  0  0  0  0  0  0
   13.0508   -0.3590    0.0000 H   0  0  0  0  0  0  0  0  0  0  0  0
   11.2432   -0.2180    0.0000 H   0  0  0  0  0  0  0  0  0  0  0  0
   11.9786   -0.6955    0.0000 H   0  0  0  0  0  0  0  0  0  0  0  0
   12.4561    0.0398    0.0000 H   0  0  0  0  0  0  0  0  0  0  0  0
   14.7355   -0.3642    0.0000 H   0  0  0  0  0  0  0  0  0  0  0  0
   11.0132    4.1560    0.0000 H   0  0  0  0  0  0  0  0  0  0  0  0
   13.5766    3.0147    0.0000 H   0  0  0  0  0  0  0  0  0  0  0  0
   10.3991   -0.5142    0.0000 H   0  0  0  0  0  0  0  0  0  0  0  0
   11.6721    5.6359    0.0000 H   0  0  0  0  0  0  0  0  0  0  0  0
   14.2355    4.4947    0.0000 H   0  0  0  0  0  0  0  0  0  0  0  0
   13.2833    5.8053    0.0000 H   0  0  0  0  0  0  0  0  0  0  0  0
    9.5331   -2.0142    0.0000 H   0  0  0  0  0  0  0  0  0  0  0  0
    8.1301   -2.8242    0.0000 H   0  0  0  0  0  0  0  0  0  0  0  0
    6.7272   -0.3942    0.0000 H   0  0  0  0  0  0  0  0  0  0  0  0
    4.6453   -2.5496    0.0000 H   0  0  0  0  0  0  0  0  0  0  0  0
    4.6453   -5.8588    0.0000 H   0  0  0  0  0  0  0  0  0  0  0  0
    7.8010   -3.3942    0.0000 H   0  0  0  0  0  0  0  0  0  0  0  0
    3.1963   -3.3713    0.0000 H   0  0  0  0  0  0  0  0  0  0  0  0
    7.8010   -5.0142    0.0000 H   0  0  0  0  0  0  0  0  0  0  0  0
    2.3079   -4.1936    0.0000 H   0  0  0  0  0  0  0  0  0  0  0  0
    1.4619   -4.4238    0.0000 H   0  0  0  0  0  0  0  0  0  0  0  0
    1.6921   -5.2698    0.0000 H   0  0  0  0  0  0  0  0  0  0  0  0
  1 12  1  0  0  0  0
  1 52  1  0  0  0  0
  2 17  2  0  0  0  0
  3 20  2  0  0  0  0
  4 29  1  0  0  0  0
  4 32  1  0  0  0  0
  5 37  1  0  0  0  0
  5 40  1  0  0  0  0
  6  7  1  0  0  0  0
  6 11  1  0  0  0  0
  6 13  1  0  0  0  0
  7 17  1  0  0  0  0
  7 18  1  0  0  0  0
  8 20  1  0  0  0  0
  8 26  1  0  0  0  0
  8 55  1  0  0  0  0
  9 26  2  0  0  0  0
  9 30  1  0  0  0  0
 10 33  2  0  0  0  0
 10 39  1  0  0  0  0
 11 12  1  0  0  0  0
 11 41  1  0  0  0  0
 11 42  1  0  0  0  0
 12 15  1  0  0  0  0
 12 16  1  0  0  0  0
 13 14  2  0  0  0  0
 13 19  1  0  0  0  0
 14 17  1  0  0  0  0
 14 20  1  0  0  0  0
 15 43  1  0  0  0  0
 15 44  1  0  0  0  0
 15 45  1  0  0  0  0
 16 46  1  0  0  0  0
 16 47  1  0  0  0  0
 16 48  1  0  0  0  0
 18 21  2  0  0  0  0
 18 22  1  0  0  0  0
 19 49  1  0  0  0  0
 19 50  1  0  0  0  0
 19 51  1  0  0  0  0
 21 23  1  0  0  0  0
 21 53  1  0  0  0  0
 22 24  2  0  0  0  0
 22 54  1  0  0  0  0
 23 25  2  0  0  0  0
 23 56  1  0  0  0  0
 24 25  1  0  0  0  0
 24 57  1  0  0  0  0
 25 58  1  0  0  0  0
 26 27  1  0  0  0  0
 27 28  2  0  0  0  0
 27 59  1  0  0  0  0
 28 29  1  0  0  0  0
 28 60  1  0  0  0  0
 29 30  2  0  0  0  0
 30 61  1  0  0  0  0
 31 32  2  0  0  0  0
 31 33  1  0  0  0  0
 31 34  1  0  0  0  0
 32 36  1  0  0  0  0
 33 35  1  0  0  0  0
 34 38  2  0  0  0  0
 34 62  1  0  0  0  0
 35 37  2  0  0  0  0
 35 63  1  0  0  0  0
 36 39  2  0  0  0  0
 36 64  1  0  0  0  0
 37 38  1  0  0  0  0
 38 65  1  0  0  0  0
 39 66  1  0  0  0  0
 40 67  1  0  0  0  0
 40 68  1  0  0  0  0
 40 69  1  0  0  0  0
M  END
> <PUBCHEM_COMPOUND_CID>
24764449

> <PUBCHEM_COMPOUND_CANONICALIZED>
1

> <PUBCHEM_CACTVS_COMPLEXITY>
951

> <PUBCHEM_CACTVS_HBOND_ACCEPTOR>
8

> <PUBCHEM_CACTVS_HBOND_DONOR>
2

> <PUBCHEM_CACTVS_ROTATABLE_BOND>
8

> <PUBCHEM_CACTVS_SUBSKEYS>
AAADceB7uAAAAAAAAAAAAAAAAAAAAQAAAAA8eIEAAAAAAACx/AAAHgAYCAAADEzBngY/9vLIFgCoAzd3dASCjCkxYiAb2CE/bNiOJurM+ZuHOCju1RvY6Wew8K8OIAAAAgACAABAAAAEAAQAAAAAAAAAAA==

> <PUBCHEM_IUPAC_OPENEYE_NAME>
1-(2-hydroxy-2-methyl-propyl)-N-[5-[(7-methoxy-4-quinolyl)oxy]-2-pyridyl]-5-methyl-3-oxo-2-phenyl-pyrazole-4-carboxamide

> <PUBCHEM_IUPAC_CAS_NAME>
1-(2-hydroxy-2-methylpropyl)-N-[5-[(7-methoxy-4-quinolinyl)oxy]-2-pyridinyl]-5-methyl-3-oxo-2-phenyl-4-pyrazolecarboxamide

> <PUBCHEM_IUPAC_NAME_MARKUP>
1-(2-hydroxy-2-methylpropyl)-<I>N</I>-[5-(7-methoxyquinolin-4-yl)oxypyridin-2-yl]-5-methyl-3-oxo-2-phenylpyrazole-4-carboxamide

> <PUBCHEM_IUPAC_NAME>
1-(2-hydroxy-2-methylpropyl)-N-[5-(7-methoxyquinolin-4-yl)oxypyridin-2-yl]-5-methyl-3-oxo-2-phenylpyrazole-4-carboxamide

> <PUBCHEM_IUPAC_SYSTEMATIC_NAME>
N-[5-(7-methoxyquinolin-4-yl)oxypyridin-2-yl]-5-methyl-1-(2-methyl-2-oxidanyl-propyl)-3-oxidanylidene-2-phenyl-pyrazole-4-carboxamide

> <PUBCHEM_IUPAC_TRADITIONAL_NAME>
1-(2-hydroxy-2-methyl-propyl)-3-keto-N-[5-[(7-methoxy-4-quinolyl)oxy]-2-pyridyl]-5-methyl-2-phenyl-3-pyrazoline-4-carboxamide

> <PUBCHEM_IUPAC_INCHI>
InChI=1S/C30H29N5O5/c1-19-27(29(37)35(20-8-6-5-7-9-20)34(19)18-30(2,3)38)28(36)33-26-13-11-22(17-32-26)40-25-14-15-31-24-16-21(39-4)10-12-23(24)25/h5-17,38H,18H2,1-4H3,(H,32,33,36)

> <PUBCHEM_IUPAC_INCHIKEY>
GLBZSOQDAOLMGC-UHFFFAOYSA-N

> <PUBCHEM_XLOGP3_AA>
4

> <PUBCHEM_EXACT_MASS>
539.21686904

> <PUBCHEM_MOLECULAR_FORMULA>
C30H29N5O5

> <PUBCHEM_MOLECULAR_WEIGHT>
539.6

> <PUBCHEM_SMILES>
CC1=C(C(=O)N(N1CC(C)(C)O)C2=CC=CC=C2)C(=O)NC3=NC=C(C=C3)OC4=C5C=CC(=CC5=NC=C4)OC

> <PUBCHEM_OPENEYE_CAN_SMILES>
CC1=C(C(=O)N(N1CC(C)(C)O)C2=CC=CC=C2)C(=O)NC3=NC=C(C=C3)OC4=C5C=CC(=CC5=NC=C4)OC

> <PUBCHEM_OPENEYE_ISO_SMILES>
CC1=C(C(=O)N(N1CC(C)(C)O)C2=CC=CC=C2)C(=O)NC3=NC=C(C=C3)OC4=C5C=CC(=CC5=NC=C4)OC

> <PUBCHEM_CACTVS_TPSA>
117

> <PUBCHEM_MONOISOTOPIC_WEIGHT>
539.21686904

> <PUBCHEM_TOTAL_CHARGE>
0

> <PUBCHEM_HEAVY_ATOM_COUNT>
40

> <PUBCHEM_ATOM_DEF_STEREO_COUNT>
0

> <PUBCHEM_ATOM_UDEF_STEREO_COUNT>
0

> <PUBCHEM_BOND_DEF_STEREO_COUNT>
0

> <PUBCHEM_BOND_UDEF_STEREO_COUNT>
0

> <PUBCHEM_ISOTOPIC_ATOM_COUNT>
0

> <PUBCHEM_COMPONENT_COUNT>
1

> <PUBCHEM_CACTVS_TAUTO_COUNT>
-1

> <PUBCHEM_COORDINATE_TYPE>
1
5
255

> <PUBCHEM_BONDANNOTATIONS>
10  33  8
10  39  8
13  14  8
14  17  8
18  21  8
18  22  8
21  23  8
22  24  8
23  25  8
24  25  8
26  27  8
27  28  8
28  29  8
29  30  8
31  32  8
31  33  8
31  34  8
32  36  8
33  35  8
34  38  8
35  37  8
36  39  8
37  38  8
6  13  8
6  7  8
7  17  8
9  26  8
9  30  8

$$$$
