11397177
  -OEChem-03202504512D

 50 52  0     0  0  0  0  0  0999 V2000
    8.0030    1.6018    0.0000 Cl  0  0  0  0  0  0  0  0  0  0  0  0
    5.4049    3.1018    0.0000 S   0  0  0  0  0  0  0  0  0  0  0  0
    4.5389   -0.3982    0.0000 O   0  0  0  0  0  0  0  0  0  0  0  0
    3.3732   -3.9678    0.0000 O   0  0  0  0  0  0  0  0  0  0  0  0
    5.9049    3.9678    0.0000 O   0  0  0  0  0  0  0  0  0  0  0  0
    4.9049    2.2358    0.0000 O   0  0  0  0  0  0  0  0  0  0  0  0
    7.9440   -1.8465    0.0000 O   0  0  0  0  0  0  0  0  0  0  0  0
    6.2710    2.6018    0.0000 N   0  0  0  0  0  0  0  0  0  0  0  0
    6.2710   -1.3982    0.0000 N   0  0  0  0  0  0  0  0  0  0  0  0
    6.7192   -3.0712    0.0000 N   0  0  0  0  0  0  0  0  0  0  0  0
    5.0462   -3.5195    0.0000 N   0  0  0  0  0  0  0  0  0  0  0  0
    4.5216   -1.5615    0.0000 N   0  0  0  0  0  0  0  0  0  0  0  0
    2.0000   -3.1418    0.0000 N   0  0  0  0  0  0  0  0  0  0  0  0
    2.4249   -1.4288    0.0000 C   0  0  0  0  0  0  0  0  0  0  0  0
    2.6837   -0.4628    0.0000 C   0  0  0  0  0  0  0  0  0  0  0  0
    2.9249   -2.2948    0.0000 C   0  0  0  0  0  0  0  0  0  0  0  0
    3.6496   -0.2040    0.0000 C   0  0  0  0  0  0  0  0  0  0  0  0
    2.6661   -3.2607    0.0000 C   0  0  0  0  0  0  0  0  0  0  0  0
    5.4049    0.1018    0.0000 C   0  0  0  0  0  0  0  0  0  0  0  0
    6.2710   -0.3982    0.0000 C   0  0  0  0  0  0  0  0  0  0  0  0
    6.2710    1.6018    0.0000 C   0  0  0  0  0  0  0  0  0  0  0  0
    5.4049    1.1018    0.0000 C   0  0  0  0  0  0  0  0  0  0  0  0
    7.1370    0.1018    0.0000 C   0  0  0  0  0  0  0  0  0  0  0  0
    7.1370    1.1018    0.0000 C   0  0  0  0  0  0  0  0  0  0  0  0
    4.0803   -3.2607    0.0000 C   0  0  0  0  0  0  0  0  0  0  0  0
    6.9781   -2.1053    0.0000 C   0  0  0  0  0  0  0  0  0  0  0  0
    4.5389    3.6018    0.0000 C   0  0  0  0  0  0  0  0  0  0  0  0
    5.7533   -2.8124    0.0000 C   0  0  0  0  0  0  0  0  0  0  0  0
    3.8060   -2.2826    0.0000 C   0  0  0  0  0  0  0  0  0  0  0  0
    5.5018   -1.8282    0.0000 C   0  0  0  0  0  0  0  0  0  0  0  0
    2.9030   -2.7122    0.0000 C   0  0  0  0  0  0  0  0  0  0  0  0
    1.8880   -1.1188    0.0000 H   0  0  0  0  0  0  0  0  0  0  0  0
    1.9865   -1.8672    0.0000 H   0  0  0  0  0  0  0  0  0  0  0  0
    2.6297    0.1548    0.0000 H   0  0  0  0  0  0  0  0  0  0  0  0
    2.0661   -0.4088    0.0000 H   0  0  0  0  0  0  0  0  0  0  0  0
    3.4618   -2.6048    0.0000 H   0  0  0  0  0  0  0  0  0  0  0  0
    3.3633   -1.8564    0.0000 H   0  0  0  0  0  0  0  0  0  0  0  0
    3.9892    0.3147    0.0000 H   0  0  0  0  0  0  0  0  0  0  0  0
    3.6642   -0.8238    0.0000 H   0  0  0  0  0  0  0  0  0  0  0  0
    2.1042   -2.9987    0.0000 H   0  0  0  0  0  0  0  0  0  0  0  0
    2.3105   -3.7686    0.0000 H   0  0  0  0  0  0  0  0  0  0  0  0
    4.8680    1.4118    0.0000 H   0  0  0  0  0  0  0  0  0  0  0  0
    7.6739   -0.2082    0.0000 H   0  0  0  0  0  0  0  0  0  0  0  0
    6.8079    2.9118    0.0000 H   0  0  0  0  0  0  0  0  0  0  0  0
    5.7791   -1.0207    0.0000 H   0  0  0  0  0  0  0  0  0  0  0  0
    4.8489    4.1387    0.0000 H   0  0  0  0  0  0  0  0  0  0  0  0
    4.0020    3.9118    0.0000 H   0  0  0  0  0  0  0  0  0  0  0  0
    4.2289    3.0649    0.0000 H   0  0  0  0  0  0  0  0  0  0  0  0
    7.0292   -3.6082    0.0000 H   0  0  0  0  0  0  0  0  0  0  0  0
    5.9435   -1.3932    0.0000 H   0  0  0  0  0  0  0  0  0  0  0  0
  1 24  1  0  0  0  0
  2  5  2  0  0  0  0
  2  6  2  0  0  0  0
  2  8  1  0  0  0  0
  2 27  1  0  0  0  0
  3 17  1  0  0  0  0
  3 19  1  0  0  0  0
  4 18  1  0  0  0  0
  4 25  1  0  0  0  0
  7 26  2  0  0  0  0
  8 21  1  0  0  0  0
  8 44  1  0  0  0  0
  9 20  1  0  0  0  0
  9 26  1  0  0  0  0
  9 45  1  0  0  0  0
 10 26  1  0  0  0  0
 10 28  1  0  0  0  0
 10 49  1  0  0  0  0
 11 25  2  0  0  0  0
 11 28  1  0  0  0  0
 12 29  2  0  0  0  0
 12 30  1  0  0  0  0
 13 31  3  0  0  0  0
 14 15  1  0  0  0  0
 14 16  1  0  0  0  0
 14 32  1  0  0  0  0
 14 33  1  0  0  0  0
 15 17  1  0  0  0  0
 15 34  1  0  0  0  0
 15 35  1  0  0  0  0
 16 18  1  0  0  0  0
 16 36  1  0  0  0  0
 16 37  1  0  0  0  0
 17 38  1  0  0  0  0
 17 39  1  0  0  0  0
 18 40  1  0  0  0  0
 18 41  1  0  0  0  0
 19 20  1  0  0  0  0
 19 22  2  0  0  0  0
 20 23  2  0  0  0  0
 21 22  1  0  0  0  0
 21 24  2  0  0  0  0
 22 42  1  0  0  0  0
 23 24  1  0  0  0  0
 23 43  1  0  0  0  0
 25 29  1  0  0  0  0
 27 46  1  0  0  0  0
 27 47  1  0  0  0  0
 27 48  1  0  0  0  0
 28 30  2  0  0  0  0
 29 31  1  0  0  0  0
 30 50  1  0  0  0  0
M  END
> <PUBCHEM_COMPOUND_CID>
11397177

> <PUBCHEM_COMPOUND_CANONICALIZED>
1

> <PUBCHEM_CACTVS_COMPLEXITY>
771

> <PUBCHEM_CACTVS_HBOND_ACCEPTOR>
9

> <PUBCHEM_CACTVS_HBOND_DONOR>
3

> <PUBCHEM_CACTVS_ROTATABLE_BOND>
2

> <PUBCHEM_CACTVS_SUBSKEYS>
AAADceB7uABEAAAAAAAAAAAAAAAAAAAAAAA8QAAAAAAAAAABwAAAHgYQQAAACA7hlia/9pLIFAK4BTZndHSiiC0xdyAB2AA/foiO5mLFspufOCju1RvY6CeQcAkAACCAAgIAEBAAQQAEBAAgIAAAAAAAAA==

> <PUBCHEM_IUPAC_OPENEYE_NAME>
N-(7-chloro-19-cyano-3-oxo-11,17-dioxa-2,4,20,22-tetrazatricyclo[16.3.1.05,10]docosa-1(21),5,7,9,18(22),19-hexaen-8-yl)methanesulfonamide

> <PUBCHEM_IUPAC_CAS_NAME>
N-(7-chloro-19-cyano-3-oxo-11,17-dioxa-2,4,20,22-tetrazatricyclo[16.3.1.05,10]docosa-1(21),5,7,9,18(22),19-hexaen-8-yl)methanesulfonamide

> <PUBCHEM_IUPAC_NAME_MARKUP>
<I>N</I>-(7-chloro-19-cyano-3-oxo-11,17-dioxa-2,4,20,22-tetrazatricyclo[16.3.1.0<SUP>5,10</SUP>]docosa-1(21),5,7,9,18(22),19-hexaen-8-yl)methanesulfonamide

> <PUBCHEM_IUPAC_NAME>
N-(7-chloro-19-cyano-3-oxo-11,17-dioxa-2,4,20,22-tetrazatricyclo[16.3.1.05,10]docosa-1(21),5,7,9,18(22),19-hexaen-8-yl)methanesulfonamide

> <PUBCHEM_IUPAC_SYSTEMATIC_NAME>
N-(7-chloranyl-19-cyano-3-oxidanylidene-11,17-dioxa-2,4,20,22-tetrazatricyclo[16.3.1.05,10]docosa-1(21),5,7,9,18(22),19-hexaen-8-yl)methanesulfonamide

> <PUBCHEM_IUPAC_TRADITIONAL_NAME>
N-(7-chloro-19-cyano-3-keto-11,17-dioxa-2,4,20,22-tetrazatricyclo[16.3.1.05,10]docosa-1(21),5,7,9,18(22),19-hexaen-8-yl)methanesulfonamide

> <PUBCHEM_IUPAC_INCHI>
InChI=1S/C18H19ClN6O5S/c1-31(27,28)25-12-8-15-13(7-11(12)19)22-18(26)24-16-10-21-14(9-20)17(23-16)30-6-4-2-3-5-29-15/h7-8,10,25H,2-6H2,1H3,(H2,22,23,24,26)

> <PUBCHEM_IUPAC_INCHIKEY>
QTQUAHGXBLFSCH-UHFFFAOYSA-N

> <PUBCHEM_XLOGP3_AA>
1.4

> <PUBCHEM_EXACT_MASS>
466.0826166

> <PUBCHEM_MOLECULAR_FORMULA>
C18H19ClN6O5S

> <PUBCHEM_MOLECULAR_WEIGHT>
466.9

> <PUBCHEM_SMILES>
CS(=O)(=O)NC1=C(C=C2C(=C1)OCCCCCOC3=NC(=CN=C3C#N)NC(=O)N2)Cl

> <PUBCHEM_OPENEYE_CAN_SMILES>
CS(=O)(=O)NC1=C(C=C2C(=C1)OCCCCCOC3=NC(=CN=C3C#N)NC(=O)N2)Cl

> <PUBCHEM_OPENEYE_ISO_SMILES>
CS(=O)(=O)NC1=C(C=C2C(=C1)OCCCCCOC3=NC(=CN=C3C#N)NC(=O)N2)Cl

> <PUBCHEM_CACTVS_TPSA>
164

> <PUBCHEM_MONOISOTOPIC_WEIGHT>
466.0826166

> <PUBCHEM_TOTAL_CHARGE>
0

> <PUBCHEM_HEAVY_ATOM_COUNT>
31

> <PUBCHEM_ATOM_DEF_STEREO_COUNT>
0

> <PUBCHEM_ATOM_UDEF_STEREO_COUNT>
0

> <PUBCHEM_BOND_DEF_STEREO_COUNT>
0

> <PUBCHEM_BOND_UDEF_STEREO_COUNT>
0

> <PUBCHEM_ISOTOPIC_ATOM_COUNT>
0

> <PUBCHEM_COMPONENT_COUNT>
1

> <PUBCHEM_CACTVS_TAUTO_COUNT>
-1

> <PUBCHEM_COORDINATE_TYPE>
1
5
255

> <PUBCHEM_BONDANNOTATIONS>
11  25  8
11  28  8
12  29  8
12  30  8
19  20  8
19  22  8
20  23  8
21  22  8
21  24  8
23  24  8
25  29  8
28  30  8

$$$$
