24894883
  -OEChem-03202506492D

 50 53  0     0  0  0  0  0  0999 V2000
    3.4026    1.4630    0.0000 O   0  0  0  0  0  0  0  0  0  0  0  0
    9.3850    0.5906    0.0000 O   0  0  0  0  0  0  0  0  0  0  0  0
    7.3440   -2.2084    0.0000 O   0  0  0  0  0  0  0  0  0  0  0  0
    9.1725   -1.3981    0.0000 O   0  0  0  0  0  0  0  0  0  0  0  0
    4.6783   -1.9087    0.0000 N   0  0  0  0  0  0  0  0  0  0  0  0
    4.9917    2.2693    0.0000 N   0  0  0  0  0  0  0  0  0  0  0  0
    4.9889    0.6512    0.0000 C   0  0  0  0  0  0  0  0  0  0  0  0
    4.6783   -0.2993    0.0000 C   0  0  0  0  0  0  0  0  0  0  0  0
    5.9405    0.9586    0.0000 C   0  0  0  0  0  0  0  0  0  0  0  0
    3.7320   -0.6040    0.0000 C   0  0  0  0  0  0  0  0  0  0  0  0
    5.9422    1.9586    0.0000 C   0  0  0  0  0  0  0  0  0  0  0  0
    3.7320   -1.6040    0.0000 C   0  0  0  0  0  0  0  0  0  0  0  0
    5.2619   -1.1040    0.0000 C   0  0  0  0  0  0  0  0  0  0  0  0
    4.4026    1.4613    0.0000 C   0  0  0  0  0  0  0  0  0  0  0  0
    6.7485    0.3694    0.0000 C   0  0  0  0  0  0  0  0  0  0  0  0
    2.8660   -0.1040    0.0000 C   0  0  0  0  0  0  0  0  0  0  0  0
    2.8660   -2.1040    0.0000 C   0  0  0  0  0  0  0  0  0  0  0  0
    6.6423   -0.6249    0.0000 C   0  0  0  0  0  0  0  0  0  0  0  0
    7.6628    0.7746    0.0000 C   0  0  0  0  0  0  0  0  0  0  0  0
    4.9889   -2.8593    0.0000 C   0  0  0  0  0  0  0  0  0  0  0  0
    2.0000   -0.6040    0.0000 C   0  0  0  0  0  0  0  0  0  0  0  0
    2.0000   -1.6040    0.0000 C   0  0  0  0  0  0  0  0  0  0  0  0
    8.4708    0.1854    0.0000 C   0  0  0  0  0  0  0  0  0  0  0  0
    7.4503   -1.2141    0.0000 C   0  0  0  0  0  0  0  0  0  0  0  0
    8.3645   -0.8089    0.0000 C   0  0  0  0  0  0  0  0  0  0  0  0
    9.4913    1.5849    0.0000 C   0  0  0  0  0  0  0  0  0  0  0  0
    8.1520   -2.7976    0.0000 C   0  0  0  0  0  0  0  0  0  0  0  0
   10.0868   -0.9930    0.0000 C   0  0  0  0  0  0  0  0  0  0  0  0
    6.5587    1.8927    0.0000 H   0  0  0  0  0  0  0  0  0  0  0  0
    6.0722    2.5648    0.0000 H   0  0  0  0  0  0  0  0  0  0  0  0
    5.8819   -1.1040    0.0000 H   0  0  0  0  0  0  0  0  0  0  0  0
    4.8012    2.8593    0.0000 H   0  0  0  0  0  0  0  0  0  0  0  0
    2.8660    0.5160    0.0000 H   0  0  0  0  0  0  0  0  0  0  0  0
    2.8660   -2.7240    0.0000 H   0  0  0  0  0  0  0  0  0  0  0  0
    6.0754   -0.8761    0.0000 H   0  0  0  0  0  0  0  0  0  0  0  0
    7.7286    1.3911    0.0000 H   0  0  0  0  0  0  0  0  0  0  0  0
    4.3996   -3.0519    0.0000 H   0  0  0  0  0  0  0  0  0  0  0  0
    5.1815   -3.4486    0.0000 H   0  0  0  0  0  0  0  0  0  0  0  0
    5.5783   -2.6667    0.0000 H   0  0  0  0  0  0  0  0  0  0  0  0
    1.4631   -0.2940    0.0000 H   0  0  0  0  0  0  0  0  0  0  0  0
    1.4631   -1.9140    0.0000 H   0  0  0  0  0  0  0  0  0  0  0  0
   10.1078    1.5190    0.0000 H   0  0  0  0  0  0  0  0  0  0  0  0
    9.5571    2.2014    0.0000 H   0  0  0  0  0  0  0  0  0  0  0  0
    8.8748    1.6508    0.0000 H   0  0  0  0  0  0  0  0  0  0  0  0
    7.7867   -3.2986    0.0000 H   0  0  0  0  0  0  0  0  0  0  0  0
    8.6530   -3.1629    0.0000 H   0  0  0  0  0  0  0  0  0  0  0  0
    8.5173   -2.2967    0.0000 H   0  0  0  0  0  0  0  0  0  0  0  0
   10.3380   -1.5598    0.0000 H   0  0  0  0  0  0  0  0  0  0  0  0
   10.6536   -0.7418    0.0000 H   0  0  0  0  0  0  0  0  0  0  0  0
    9.8356   -0.4261    0.0000 H   0  0  0  0  0  0  0  0  0  0  0  0
  1 14  2  0  0  0  0
  2 23  1  0  0  0  0
  2 26  1  0  0  0  0
  3 24  1  0  0  0  0
  3 27  1  0  0  0  0
  4 25  1  0  0  0  0
  4 28  1  0  0  0  0
  5 12  1  0  0  0  0
  5 13  1  0  0  0  0
  5 20  1  0  0  0  0
  6 11  1  0  0  0  0
  6 14  1  0  0  0  0
  6 32  1  0  0  0  0
  7  8  1  0  0  0  0
  7  9  2  0  0  0  0
  7 14  1  0  0  0  0
  8 10  1  0  0  0  0
  8 13  2  0  0  0  0
  9 11  1  0  0  0  0
  9 15  1  0  0  0  0
 10 12  1  0  0  0  0
 10 16  2  0  0  0  0
 11 29  1  0  0  0  0
 11 30  1  0  0  0  0
 12 17  2  0  0  0  0
 13 31  1  0  0  0  0
 15 18  2  0  0  0  0
 15 19  1  0  0  0  0
 16 21  1  0  0  0  0
 16 33  1  0  0  0  0
 17 22  1  0  0  0  0
 17 34  1  0  0  0  0
 18 24  1  0  0  0  0
 18 35  1  0  0  0  0
 19 23  2  0  0  0  0
 19 36  1  0  0  0  0
 20 37  1  0  0  0  0
 20 38  1  0  0  0  0
 20 39  1  0  0  0  0
 21 22  2  0  0  0  0
 21 40  1  0  0  0  0
 22 41  1  0  0  0  0
 23 25  1  0  0  0  0
 24 25  2  0  0  0  0
 26 42  1  0  0  0  0
 26 43  1  0  0  0  0
 26 44  1  0  0  0  0
 27 45  1  0  0  0  0
 27 46  1  0  0  0  0
 27 47  1  0  0  0  0
 28 48  1  0  0  0  0
 28 49  1  0  0  0  0
 28 50  1  0  0  0  0
M  END
> <PUBCHEM_COMPOUND_CID>
24894883

> <PUBCHEM_COMPOUND_CANONICALIZED>
1

> <PUBCHEM_CACTVS_COMPLEXITY>
608

> <PUBCHEM_CACTVS_HBOND_ACCEPTOR>
4

> <PUBCHEM_CACTVS_HBOND_DONOR>
1

> <PUBCHEM_CACTVS_ROTATABLE_BOND>
5

> <PUBCHEM_CACTVS_SUBSKEYS>
AAADceB7OAAAAAAAAAAAAAAAAAAAAWIAAAAwYAAAAAAAAFgB9AAAHgAQAAAADAzBngY+xvPMFACoAzV3VACCiCAxIiAI2KE+7NgNJ/LEtZuEMCplxhXK6Qec+f6eoAABCAACQABAAAIQAASAAAAAAAAAAA==

> <PUBCHEM_IUPAC_OPENEYE_NAME>
4-(1-methylindol-3-yl)-3-(3,4,5-trimethoxyphenyl)-1,2-dihydropyrrol-5-one

> <PUBCHEM_IUPAC_CAS_NAME>
4-(1-methyl-3-indolyl)-3-(3,4,5-trimethoxyphenyl)-1,2-dihydropyrrol-5-one

> <PUBCHEM_IUPAC_NAME_MARKUP>
4-(1-methylindol-3-yl)-3-(3,4,5-trimethoxyphenyl)-1,2-dihydropyrrol-5-one

> <PUBCHEM_IUPAC_NAME>
4-(1-methylindol-3-yl)-3-(3,4,5-trimethoxyphenyl)-1,2-dihydropyrrol-5-one

> <PUBCHEM_IUPAC_SYSTEMATIC_NAME>
4-(1-methylindol-3-yl)-3-(3,4,5-trimethoxyphenyl)-1,2-dihydropyrrol-5-one

> <PUBCHEM_IUPAC_TRADITIONAL_NAME>
3-(1-methylindol-3-yl)-4-(3,4,5-trimethoxyphenyl)-3-pyrrolin-2-one

> <PUBCHEM_IUPAC_INCHI>
InChI=1S/C22H22N2O4/c1-24-12-16(14-7-5-6-8-17(14)24)20-15(11-23-22(20)25)13-9-18(26-2)21(28-4)19(10-13)27-3/h5-10,12H,11H2,1-4H3,(H,23,25)

> <PUBCHEM_IUPAC_INCHIKEY>
DUPIINAVKMGMHG-UHFFFAOYSA-N

> <PUBCHEM_XLOGP3_AA>
2.4

> <PUBCHEM_EXACT_MASS>
378.15795719

> <PUBCHEM_MOLECULAR_FORMULA>
C22H22N2O4

> <PUBCHEM_MOLECULAR_WEIGHT>
378.4

> <PUBCHEM_SMILES>
CN1C=C(C2=CC=CC=C21)C3=C(CNC3=O)C4=CC(=C(C(=C4)OC)OC)OC

> <PUBCHEM_OPENEYE_CAN_SMILES>
CN1C=C(C2=CC=CC=C21)C3=C(CNC3=O)C4=CC(=C(C(=C4)OC)OC)OC

> <PUBCHEM_OPENEYE_ISO_SMILES>
CN1C=C(C2=CC=CC=C21)C3=C(CNC3=O)C4=CC(=C(C(=C4)OC)OC)OC

> <PUBCHEM_CACTVS_TPSA>
61.7

> <PUBCHEM_MONOISOTOPIC_WEIGHT>
378.15795719

> <PUBCHEM_TOTAL_CHARGE>
0

> <PUBCHEM_HEAVY_ATOM_COUNT>
28

> <PUBCHEM_ATOM_DEF_STEREO_COUNT>
0

> <PUBCHEM_ATOM_UDEF_STEREO_COUNT>
0

> <PUBCHEM_BOND_DEF_STEREO_COUNT>
0

> <PUBCHEM_BOND_UDEF_STEREO_COUNT>
0

> <PUBCHEM_ISOTOPIC_ATOM_COUNT>
0

> <PUBCHEM_COMPONENT_COUNT>
1

> <PUBCHEM_CACTVS_TAUTO_COUNT>
-1

> <PUBCHEM_COORDINATE_TYPE>
1
5
255

> <PUBCHEM_BONDANNOTATIONS>
10  12  8
10  16  8
12  17  8
15  18  8
15  19  8
16  21  8
17  22  8
18  24  8
19  23  8
21  22  8
23  25  8
24  25  8
5  12  8
5  13  8
8  10  8
8  13  8

$$$$
