45482700
  -OEChem-03202507042D

 40 43  0     1  0  0  0  0  0999 V2000
    8.3696    2.4313    0.0000 S   0  0  2  0  0  0  0  0  0  0  0  0
    7.1270   -2.9803    0.0000 O   0  0  0  0  0  0  0  0  0  0  0  0
    3.4782   -0.1810    0.0000 O   0  0  0  0  0  0  0  0  0  0  0  0
    7.7018    3.1756    0.0000 O   0  0  0  0  0  0  0  0  0  0  0  0
    6.1808   -1.6756    0.0000 C   0  0  0  0  0  0  0  0  0  0  0  0
    7.1270   -1.3708    0.0000 C   0  0  0  0  0  0  0  0  0  0  0  0
    6.1808   -2.6756    0.0000 C   0  0  0  0  0  0  0  0  0  0  0  0
    4.4487   -1.6756    0.0000 C   0  0  0  0  0  0  0  0  0  0  0  0
    5.3147   -1.1756    0.0000 C   0  0  0  0  0  0  0  0  0  0  0  0
    7.4376   -0.4203    0.0000 C   0  0  0  0  0  0  0  0  0  0  0  0
    7.7106   -2.1756    0.0000 C   0  0  0  0  0  0  0  0  0  0  0  0
    5.3147   -3.1756    0.0000 C   0  0  0  0  0  0  0  0  0  0  0  0
    4.4487   -2.6756    0.0000 C   0  0  0  0  0  0  0  0  0  0  0  0
    3.5827   -1.1756    0.0000 C   0  0  0  0  0  0  0  0  0  0  0  0
    6.7698    0.3240    0.0000 C   0  0  0  0  0  0  0  0  0  0  0  0
    8.4161   -0.2141    0.0000 C   0  0  0  0  0  0  0  0  0  0  0  0
    8.0590    1.4807    0.0000 C   0  0  0  0  0  0  0  0  0  0  0  0
    7.0804    1.2745    0.0000 C   0  0  0  0  0  0  0  0  0  0  0  0
    8.7268    0.7364    0.0000 C   0  0  0  0  0  0  0  0  0  0  0  0
    2.6691   -1.5823    0.0000 C   0  0  0  0  0  0  0  0  0  0  0  0
    2.5000    0.0269    0.0000 C   0  0  0  0  0  0  0  0  0  0  0  0
    2.0000   -0.8391    0.0000 C   0  0  0  0  0  0  0  0  0  0  0  0
    2.0933    0.9404    0.0000 C   0  0  0  0  0  0  0  0  0  0  0  0
    9.3481    2.6375    0.0000 C   0  0  0  0  0  0  0  0  0  0  0  0
    5.3147   -0.5556    0.0000 H   0  0  0  0  0  0  0  0  0  0  0  0
    8.3306   -2.1756    0.0000 H   0  0  0  0  0  0  0  0  0  0  0  0
    5.3147   -3.7956    0.0000 H   0  0  0  0  0  0  0  0  0  0  0  0
    3.9118   -2.9856    0.0000 H   0  0  0  0  0  0  0  0  0  0  0  0
    6.1631    0.1961    0.0000 H   0  0  0  0  0  0  0  0  0  0  0  0
    8.8302   -0.6756    0.0000 H   0  0  0  0  0  0  0  0  0  0  0  0
    6.6664    1.7360    0.0000 H   0  0  0  0  0  0  0  0  0  0  0  0
    9.3335    0.8643    0.0000 H   0  0  0  0  0  0  0  0  0  0  0  0
    2.5402   -2.1888    0.0000 H   0  0  0  0  0  0  0  0  0  0  0  0
    1.3834   -0.9040    0.0000 H   0  0  0  0  0  0  0  0  0  0  0  0
    2.6597    1.1926    0.0000 H   0  0  0  0  0  0  0  0  0  0  0  0
    1.8411    1.5068    0.0000 H   0  0  0  0  0  0  0  0  0  0  0  0
    1.5269    0.6882    0.0000 H   0  0  0  0  0  0  0  0  0  0  0  0
    9.4760    2.0308    0.0000 H   0  0  0  0  0  0  0  0  0  0  0  0
    9.9548    2.7653    0.0000 H   0  0  0  0  0  0  0  0  0  0  0  0
    9.2203    3.2442    0.0000 H   0  0  0  0  0  0  0  0  0  0  0  0
  1  4  2  0  0  0  0
  1 17  1  0  0  0  0
  1 24  1  1  0  0  0
  2  7  1  0  0  0  0
  2 11  1  0  0  0  0
  3 14  1  0  0  0  0
  3 21  1  0  0  0  0
  5  6  1  0  0  0  0
  5  7  2  0  0  0  0
  5  9  1  0  0  0  0
  6 10  1  0  0  0  0
  6 11  2  0  0  0  0
  7 12  1  0  0  0  0
  8  9  2  0  0  0  0
  8 13  1  0  0  0  0
  8 14  1  0  0  0  0
  9 25  1  0  0  0  0
 10 15  2  0  0  0  0
 10 16  1  0  0  0  0
 11 26  1  0  0  0  0
 12 13  2  0  0  0  0
 12 27  1  0  0  0  0
 13 28  1  0  0  0  0
 14 20  2  0  0  0  0
 15 18  1  0  0  0  0
 15 29  1  0  0  0  0
 16 19  2  0  0  0  0
 16 30  1  0  0  0  0
 17 18  2  0  0  0  0
 17 19  1  0  0  0  0
 18 31  1  0  0  0  0
 19 32  1  0  0  0  0
 20 22  1  0  0  0  0
 20 33  1  0  0  0  0
 21 22  2  0  0  0  0
 21 23  1  0  0  0  0
 22 34  1  0  0  0  0
 23 35  1  0  0  0  0
 23 36  1  0  0  0  0
 23 37  1  0  0  0  0
 24 38  1  0  0  0  0
 24 39  1  0  0  0  0
 24 40  1  0  0  0  0
M  END
> <PUBCHEM_COMPOUND_CID>
45482700

> <PUBCHEM_COMPOUND_CANONICALIZED>
1

> <PUBCHEM_CACTVS_COMPLEXITY>
460

> <PUBCHEM_CACTVS_HBOND_ACCEPTOR>
4

> <PUBCHEM_CACTVS_HBOND_DONOR>
0

> <PUBCHEM_CACTVS_ROTATABLE_BOND>
3

> <PUBCHEM_CACTVS_SUBSKEYS>
AAADceB4MABAAAAAAAAAAAAAAAAAASJAAAAwYAAAAAAAAEgB/AAAGgQAAAAADASg2AKyB8AABEqIAqhSgEBCCAAkKBAIiBkGCMgMJjKkNRqCOSCkwBEIqYeI7vzusAACAAAIAABgAAQAABAAAAAAAAAAAA==

> <PUBCHEM_IUPAC_OPENEYE_NAME>
5-(5-methyl-2-furyl)-3-[4-[(S)-methylsulfinyl]phenyl]benzofuran

> <PUBCHEM_IUPAC_CAS_NAME>
5-(5-methyl-2-furanyl)-3-[4-[(S)-methylsulfinyl]phenyl]benzofuran

> <PUBCHEM_IUPAC_NAME_MARKUP>
5-(5-methylfuran-2-yl)-3-[4-[(<I>S</I>)-methylsulfinyl]phenyl]-1-benzofuran

> <PUBCHEM_IUPAC_NAME>
5-(5-methylfuran-2-yl)-3-[4-[(S)-methylsulfinyl]phenyl]-1-benzofuran

> <PUBCHEM_IUPAC_SYSTEMATIC_NAME>
5-(5-methylfuran-2-yl)-3-[4-[(S)-methylsulfinyl]phenyl]-1-benzofuran

> <PUBCHEM_IUPAC_TRADITIONAL_NAME>
5-(5-methyl-2-furyl)-3-[4-[(S)-methylsulfinyl]phenyl]benzofuran

> <PUBCHEM_IUPAC_INCHI>
InChI=1S/C20H16O3S/c1-13-3-9-19(23-13)15-6-10-20-17(11-15)18(12-22-20)14-4-7-16(8-5-14)24(2)21/h3-12H,1-2H3/t24-/m0/s1

> <PUBCHEM_IUPAC_INCHIKEY>
WAODYHWCESZZOF-DEOSSOPVSA-N

> <PUBCHEM_XLOGP3_AA>
4.2

> <PUBCHEM_EXACT_MASS>
336.08201554

> <PUBCHEM_MOLECULAR_FORMULA>
C20H16O3S

> <PUBCHEM_MOLECULAR_WEIGHT>
336.4

> <PUBCHEM_SMILES>
CC1=CC=C(O1)C2=CC3=C(C=C2)OC=C3C4=CC=C(C=C4)[S@@](=O)C

> <PUBCHEM_OPENEYE_CAN_SMILES>
CC1=CC=C(O1)C2=CC3=C(C=C2)OC=C3C4=CC=C(C=C4)S(=O)C

> <PUBCHEM_OPENEYE_ISO_SMILES>
CC1=CC=C(O1)C2=CC3=C(C=C2)OC=C3C4=CC=C(C=C4)[S@@](=O)C

> <PUBCHEM_CACTVS_TPSA>
62.6

> <PUBCHEM_MONOISOTOPIC_WEIGHT>
336.08201554

> <PUBCHEM_TOTAL_CHARGE>
0

> <PUBCHEM_HEAVY_ATOM_COUNT>
24

> <PUBCHEM_ATOM_DEF_STEREO_COUNT>
1

> <PUBCHEM_ATOM_UDEF_STEREO_COUNT>
0

> <PUBCHEM_BOND_DEF_STEREO_COUNT>
0

> <PUBCHEM_BOND_UDEF_STEREO_COUNT>
0

> <PUBCHEM_ISOTOPIC_ATOM_COUNT>
0

> <PUBCHEM_COMPONENT_COUNT>
1

> <PUBCHEM_CACTVS_TAUTO_COUNT>
-1

> <PUBCHEM_COORDINATE_TYPE>
1
5
255

> <PUBCHEM_BONDANNOTATIONS>
1  24  5
10  15  8
10  16  8
12  13  8
14  20  8
15  18  8
16  19  8
17  18  8
17  19  8
2  11  8
2  7  8
20  22  8
21  22  8
3  14  8
3  21  8
5  6  8
5  7  8
5  9  8
6  11  8
7  12  8
8  13  8
8  9  8

$$$$
