25178539
  -OEChem-03202506412D

 51 56  0     0  0  0  0  0  0999 V2000
   10.3577    1.2049    0.0000 S   0  0  0  0  0  0  0  0  0  0  0  0
    6.3908   -1.4666    0.0000 O   0  0  0  0  0  0  0  0  0  0  0  0
    7.1720    1.9558    0.0000 O   0  0  0  0  0  0  0  0  0  0  0  0
    4.5438   -0.3971    0.0000 N   0  0  0  0  0  0  0  0  0  0  0  0
    5.0438    1.7936    0.0000 N   0  0  0  0  0  0  0  0  0  0  0  0
    7.0475    0.1839    0.0000 N   0  0  0  0  0  0  0  0  0  0  0  0
   12.0128    1.7154    0.0000 N   0  0  0  0  0  0  0  0  0  0  0  0
   11.6274    0.0268    0.0000 N   0  0  0  0  0  0  0  0  0  0  0  0
    5.4447    0.0368    0.0000 C   0  0  0  0  0  0  0  0  0  0  0  0
    5.6673    1.0117    0.0000 C   0  0  0  0  0  0  0  0  0  0  0  0
    3.6428    0.0368    0.0000 C   0  0  0  0  0  0  0  0  0  0  0  0
    4.0438    1.7936    0.0000 C   0  0  0  0  0  0  0  0  0  0  0  0
    3.4203    1.0117    0.0000 C   0  0  0  0  0  0  0  0  0  0  0  0
    4.4078   -1.3818    0.0000 C   0  0  0  0  0  0  0  0  0  0  0  0
    6.2994   -0.4708    0.0000 C   0  0  0  0  0  0  0  0  0  0  0  0
    6.6576    1.0983    0.0000 C   0  0  0  0  0  0  0  0  0  0  0  0
    3.6782    2.7689    0.0000 C   0  0  0  0  0  0  0  0  0  0  0  0
    3.4295   -1.5584    0.0000 C   0  0  0  0  0  0  0  0  0  0  0  0
    2.9577   -0.6835    0.0000 C   0  0  0  0  0  0  0  0  0  0  0  0
    5.3022    2.7482    0.0000 C   0  0  0  0  0  0  0  0  0  0  0  0
    8.0224   -0.0387    0.0000 C   0  0  0  0  0  0  0  0  0  0  0  0
    4.4974    3.3230    0.0000 C   0  0  0  0  0  0  0  0  0  0  0  0
    2.3880    1.1511    0.0000 C   0  0  0  0  0  0  0  0  0  0  0  0
    2.6494    2.9321    0.0000 C   0  0  0  0  0  0  0  0  0  0  0  0
    5.0887   -2.1619    0.0000 C   0  0  0  0  0  0  0  0  0  0  0  0
    8.7026    0.6944    0.0000 C   0  0  0  0  0  0  0  0  0  0  0  0
    2.0000    2.1178    0.0000 C   0  0  0  0  0  0  0  0  0  0  0  0
    3.0644   -2.5274    0.0000 C   0  0  0  0  0  0  0  0  0  0  0  0
    4.7461   -3.1390    0.0000 C   0  0  0  0  0  0  0  0  0  0  0  0
    3.7271   -3.3230    0.0000 C   0  0  0  0  0  0  0  0  0  0  0  0
    9.6775    0.4719    0.0000 C   0  0  0  0  0  0  0  0  0  0  0  0
   11.3326    0.9824    0.0000 C   0  0  0  0  0  0  0  0  0  0  0  0
    2.3432   -0.6013    0.0000 H   0  0  0  0  0  0  0  0  0  0  0  0
    5.8860    2.9568    0.0000 H   0  0  0  0  0  0  0  0  0  0  0  0
    7.7816   -0.6100    0.0000 H   0  0  0  0  0  0  0  0  0  0  0  0
    8.5432   -0.3750    0.0000 H   0  0  0  0  0  0  0  0  0  0  0  0
    4.5053    3.9430    0.0000 H   0  0  0  0  0  0  0  0  0  0  0  0
    2.0071    0.6619    0.0000 H   0  0  0  0  0  0  0  0  0  0  0  0
    2.4252    3.5102    0.0000 H   0  0  0  0  0  0  0  0  0  0  0  0
    5.6976   -2.0446    0.0000 H   0  0  0  0  0  0  0  0  0  0  0  0
    8.9434    1.2657    0.0000 H   0  0  0  0  0  0  0  0  0  0  0  0
    8.1818    1.0308    0.0000 H   0  0  0  0  0  0  0  0  0  0  0  0
    1.3866    2.2078    0.0000 H   0  0  0  0  0  0  0  0  0  0  0  0
    2.4530   -2.6305    0.0000 H   0  0  0  0  0  0  0  0  0  0  0  0
    5.1484   -3.6108    0.0000 H   0  0  0  0  0  0  0  0  0  0  0  0
    3.5152   -3.9057    0.0000 H   0  0  0  0  0  0  0  0  0  0  0  0
    9.4367   -0.0994    0.0000 H   0  0  0  0  0  0  0  0  0  0  0  0
   10.1983    0.1355    0.0000 H   0  0  0  0  0  0  0  0  0  0  0  0
   12.6172    1.5775    0.0000 H   0  0  0  0  0  0  0  0  0  0  0  0
   11.8300    2.3079    0.0000 H   0  0  0  0  0  0  0  0  0  0  0  0
   12.2318   -0.1111    0.0000 H   0  0  0  0  0  0  0  0  0  0  0  0
  1 31  1  0  0  0  0
  1 32  1  0  0  0  0
  2 15  2  0  0  0  0
  3 16  2  0  0  0  0
  4  9  1  0  0  0  0
  4 11  1  0  0  0  0
  4 14  1  0  0  0  0
  5 10  1  0  0  0  0
  5 12  1  0  0  0  0
  5 20  1  0  0  0  0
  6 15  1  0  0  0  0
  6 16  1  0  0  0  0
  6 21  1  0  0  0  0
  7 32  1  0  0  0  0
  7 49  1  0  0  0  0
  7 50  1  0  0  0  0
  8 32  2  0  0  0  0
  8 51  1  0  0  0  0
  9 10  2  0  0  0  0
  9 15  1  0  0  0  0
 10 16  1  0  0  0  0
 11 13  1  0  0  0  0
 11 19  2  0  0  0  0
 12 13  1  0  0  0  0
 12 17  2  0  0  0  0
 13 23  2  0  0  0  0
 14 18  1  0  0  0  0
 14 25  2  0  0  0  0
 17 22  1  0  0  0  0
 17 24  1  0  0  0  0
 18 19  1  0  0  0  0
 18 28  2  0  0  0  0
 19 33  1  0  0  0  0
 20 22  2  0  0  0  0
 20 34  1  0  0  0  0
 21 26  1  0  0  0  0
 21 35  1  0  0  0  0
 21 36  1  0  0  0  0
 22 37  1  0  0  0  0
 23 27  1  0  0  0  0
 23 38  1  0  0  0  0
 24 27  2  0  0  0  0
 24 39  1  0  0  0  0
 25 29  1  0  0  0  0
 25 40  1  0  0  0  0
 26 31  1  0  0  0  0
 26 41  1  0  0  0  0
 26 42  1  0  0  0  0
 27 43  1  0  0  0  0
 28 30  1  0  0  0  0
 28 44  1  0  0  0  0
 29 30  2  0  0  0  0
 29 45  1  0  0  0  0
 30 46  1  0  0  0  0
 31 47  1  0  0  0  0
 31 48  1  0  0  0  0
M  END
> <PUBCHEM_COMPOUND_CID>
25178539

> <PUBCHEM_COMPOUND_CANONICALIZED>
1

> <PUBCHEM_CACTVS_COMPLEXITY>
874

> <PUBCHEM_CACTVS_HBOND_ACCEPTOR>
4

> <PUBCHEM_CACTVS_HBOND_DONOR>
2

> <PUBCHEM_CACTVS_ROTATABLE_BOND>
5

> <PUBCHEM_CACTVS_SUBSKEYS>
AAADceB7sABAAAAAAAAAAAAAAAAAAWLEAAAwYAAABAAAAFix/gAAHgQQAAAADAjF3gS9wPNMEAioAzV3dACCgiDxAjAI2CC4ZNgIYOLg0bGUIAhghiDIyUcQgMAOAAACAAACAAAAAAQAAAQAAAAAAAAAAA==

> <PUBCHEM_IUPAC_OPENEYE_NAME>
2-[3-(12,14-dioxo-10,13,16-triazahexacyclo[14.6.1.02,10.04,9.011,15.019,23]tricosa-1(22),2,4,6,8,11(15),17,19(23),20-nonaen-13-yl)propyl]isothiourea

> <PUBCHEM_IUPAC_CAS_NAME>
carbamimidothioic acid 3-(12,14-dioxo-10,13,16-triazahexacyclo[14.6.1.02,10.04,9.011,15.019,23]tricosa-1(22),2,4,6,8,11(15),17,19(23),20-nonaen-13-yl)propyl ester

> <PUBCHEM_IUPAC_NAME_MARKUP>
3-(12,14-dioxo-10,13,16-triazahexacyclo[14.6.1.0<SUP>2,10</SUP>.0<SUP>4,9</SUP>.0<SUP>11,15</SUP>.0<SUP>19,23</SUP>]tricosa-1(22),2,4,6,8,11(15),17,19(23),20-nonaen-13-yl)propyl carbamimidothioate

> <PUBCHEM_IUPAC_NAME>
3-(12,14-dioxo-10,13,16-triazahexacyclo[14.6.1.02,10.04,9.011,15.019,23]tricosa-1(22),2,4,6,8,11(15),17,19(23),20-nonaen-13-yl)propyl carbamimidothioate

> <PUBCHEM_IUPAC_SYSTEMATIC_NAME>
3-[12,14-bis(oxidanylidene)-10,13,16-triazahexacyclo[14.6.1.02,10.04,9.011,15.019,23]tricosa-1(22),2,4,6,8,11(15),17,19(23),20-nonaen-13-yl]propyl carbamimidothioate

> <PUBCHEM_IUPAC_TRADITIONAL_NAME>
2-[3-(12,14-diketo-10,13,16-triazahexacyclo[14.6.1.02,10.04,9.011,15.019,23]tricosa-1(22),2,4,6,8,11(15),17,19(23),20-nonaen-13-yl)propyl]isothiourea

> <PUBCHEM_IUPAC_INCHI>
InChI=1S/C24H19N5O2S/c25-24(26)32-12-4-10-28-22(30)20-21(23(28)31)29-17-8-2-1-5-15(17)13-18(29)16-7-3-6-14-9-11-27(20)19(14)16/h1-3,5-9,11,13H,4,10,12H2,(H3,25,26)

> <PUBCHEM_IUPAC_INCHIKEY>
RUTCIZOQGCWURK-UHFFFAOYSA-N

> <PUBCHEM_XLOGP3_AA>
5.6

> <PUBCHEM_EXACT_MASS>
441.12594604

> <PUBCHEM_MOLECULAR_FORMULA>
C24H19N5O2S

> <PUBCHEM_MOLECULAR_WEIGHT>
441.5

> <PUBCHEM_SMILES>
C1=CC=C2C(=C1)C=C3N2C4=C(C(=O)N(C4=O)CCCSC(=N)N)N5C=CC6=C5C3=CC=C6

> <PUBCHEM_OPENEYE_CAN_SMILES>
C1=CC=C2C(=C1)C=C3N2C4=C(C(=O)N(C4=O)CCCSC(=N)N)N5C=CC6=C5C3=CC=C6

> <PUBCHEM_OPENEYE_ISO_SMILES>
C1=CC=C2C(=C1)C=C3N2C4=C(C(=O)N(C4=O)CCCSC(=N)N)N5C=CC6=C5C3=CC=C6

> <PUBCHEM_CACTVS_TPSA>
122

> <PUBCHEM_MONOISOTOPIC_WEIGHT>
441.12594604

> <PUBCHEM_TOTAL_CHARGE>
0

> <PUBCHEM_HEAVY_ATOM_COUNT>
32

> <PUBCHEM_ATOM_DEF_STEREO_COUNT>
0

> <PUBCHEM_ATOM_UDEF_STEREO_COUNT>
0

> <PUBCHEM_BOND_DEF_STEREO_COUNT>
0

> <PUBCHEM_BOND_UDEF_STEREO_COUNT>
0

> <PUBCHEM_ISOTOPIC_ATOM_COUNT>
0

> <PUBCHEM_COMPONENT_COUNT>
1

> <PUBCHEM_CACTVS_TAUTO_COUNT>
-1

> <PUBCHEM_COORDINATE_TYPE>
1
5
255

> <PUBCHEM_BONDANNOTATIONS>
10  16  8
11  13  8
11  19  8
12  13  8
12  17  8
13  23  8
14  18  8
14  25  8
17  22  8
17  24  8
18  19  8
18  28  8
20  22  8
23  27  8
24  27  8
25  29  8
28  30  8
29  30  8
4  11  8
4  14  8
4  9  8
5  10  8
5  12  8
5  20  8
6  15  8
6  16  8
9  10  8
9  15  8

$$$$
