10484487
  -OEChem-03202506132D

 86 95  0     1  0  0  0  0  0999 V2000
    9.1694    2.7101    0.0000 O   0  0  0  0  0  0  0  0  0  0  0  0
   10.9712   -1.0317    0.0000 O   0  0  0  0  0  0  0  0  0  0  0  0
    3.8942    1.0109    0.0000 O   0  0  0  0  0  0  0  0  0  0  0  0
   13.1102    2.0105    0.0000 O   0  0  0  0  0  0  0  0  0  0  0  0
    8.5714   -0.2544    0.0000 N   0  0  0  0  0  0  0  0  0  0  0  0
    7.8873    1.6249    0.0000 N   0  0  0  0  0  0  0  0  0  0  0  0
   12.6619    0.3375    0.0000 N   0  0  0  0  0  0  0  0  0  0  0  0
    4.2267   -0.7716    0.0000 N   0  0  0  0  0  0  0  0  0  0  0  0
    9.6472    0.7616    0.0000 C   0  0  1  0  0  0  0  0  0  0  0  0
   10.9189   -0.0330    0.0000 C   0  0  2  0  0  0  0  0  0  0  0  0
    9.9060    1.7275    0.0000 C   0  0  2  0  0  0  0  0  0  0  0  0
   11.6960    0.5963    0.0000 C   0  0  2  0  0  0  0  0  0  0  0  0
   11.3376    1.5299    0.0000 C   0  0  0  0  0  0  0  0  0  0  0  0
    7.5866   -0.0808    0.0000 C   0  0  0  0  0  0  0  0  0  0  0  0
    7.2445    0.8589    0.0000 C   0  0  0  0  0  0  0  0  0  0  0  0
    6.9294   -0.8890    0.0000 C   0  0  0  0  0  0  0  0  0  0  0  0
    6.2216    1.0556    0.0000 C   0  0  0  0  0  0  0  0  0  0  0  0
    8.5444   -1.2479    0.0000 C   0  0  0  0  0  0  0  0  0  0  0  0
    9.3884   -0.2043    0.0000 C   0  0  0  0  0  0  0  0  0  0  0  0
    5.9022   -0.7160    0.0000 C   0  0  0  0  0  0  0  0  0  0  0  0
    7.2281    2.3686    0.0000 C   0  0  0  0  0  0  0  0  0  0  0  0
    7.6174   -1.6061    0.0000 C   0  0  0  0  0  0  0  0  0  0  0  0
    5.5460    0.2628    0.0000 C   0  0  0  0  0  0  0  0  0  0  0  0
    6.2877    2.0472    0.0000 C   0  0  0  0  0  0  0  0  0  0  0  0
    5.0846   -1.3514    0.0000 C   0  0  0  0  0  0  0  0  0  0  0  0
    4.5112    0.2240    0.0000 C   0  0  0  0  0  0  0  0  0  0  0  0
    9.3603   -1.8851    0.0000 C   0  0  0  0  0  0  0  0  0  0  0  0
    7.4420   -2.6264    0.0000 C   0  0  0  0  0  0  0  0  0  0  0  0
    7.4435    3.3812    0.0000 C   0  0  0  0  0  0  0  0  0  0  0  0
    5.4976    2.7160    0.0000 C   0  0  0  0  0  0  0  0  0  0  0  0
   12.9207   -0.6285    0.0000 C   0  0  0  0  0  0  0  0  0  0  0  0
   13.3690    1.0446    0.0000 C   0  0  0  0  0  0  0  0  0  0  0  0
   11.8622   -1.4857    0.0000 C   0  0  0  0  0  0  0  0  0  0  0  0
    3.2870   -1.1136    0.0000 C   0  0  0  0  0  0  0  0  0  0  0  0
    9.2085   -2.9091    0.0000 C   0  0  0  0  0  0  0  0  0  0  0  0
    8.2429   -3.2822    0.0000 C   0  0  0  0  0  0  0  0  0  0  0  0
    6.6691    4.0681    0.0000 C   0  0  0  0  0  0  0  0  0  0  0  0
    5.6895    3.7332    0.0000 C   0  0  0  0  0  0  0  0  0  0  0  0
   14.3350    0.7857    0.0000 C   0  0  0  0  0  0  0  0  0  0  0  0
    3.1133   -2.0984    0.0000 C   0  0  0  0  0  0  0  0  0  0  0  0
   15.0421    1.4929    0.0000 C   0  0  0  0  0  0  0  0  0  0  0  0
   14.5938   -0.1802    0.0000 C   0  0  0  0  0  0  0  0  0  0  0  0
    3.8794   -2.7412    0.0000 C   0  0  0  0  0  0  0  0  0  0  0  0
    2.1736   -2.4404    0.0000 C   0  0  0  0  0  0  0  0  0  0  0  0
   16.0080    1.2340    0.0000 C   0  0  0  0  0  0  0  0  0  0  0  0
   15.5597   -0.4390    0.0000 C   0  0  0  0  0  0  0  0  0  0  0  0
    3.7057   -3.7260    0.0000 C   0  0  0  0  0  0  0  0  0  0  0  0
    2.0000   -3.4253    0.0000 C   0  0  0  0  0  0  0  0  0  0  0  0
   16.2668    0.2681    0.0000 C   0  0  0  0  0  0  0  0  0  0  0  0
    2.7660   -4.0681    0.0000 C   0  0  0  0  0  0  0  0  0  0  0  0
   11.4853   -0.2852    0.0000 H   0  0  0  0  0  0  0  0  0  0  0  0
   10.1260    2.5486    0.0000 H   0  0  0  0  0  0  0  0  0  0  0  0
   11.8249   -0.0102    0.0000 H   0  0  0  0  0  0  0  0  0  0  0  0
   11.9454    1.6522    0.0000 H   0  0  0  0  0  0  0  0  0  0  0  0
   11.3186    2.1496    0.0000 H   0  0  0  0  0  0  0  0  0  0  0  0
    8.7895   -0.0439    0.0000 H   0  0  0  0  0  0  0  0  0  0  0  0
    9.2279   -0.8032    0.0000 H   0  0  0  0  0  0  0  0  0  0  0  0
    9.9872   -0.3648    0.0000 H   0  0  0  0  0  0  0  0  0  0  0  0
    4.6854   -1.8257    0.0000 H   0  0  0  0  0  0  0  0  0  0  0  0
    5.5144   -1.7982    0.0000 H   0  0  0  0  0  0  0  0  0  0  0  0
    9.9360   -1.6549    0.0000 H   0  0  0  0  0  0  0  0  0  0  0  0
    6.8611   -2.8431    0.0000 H   0  0  0  0  0  0  0  0  0  0  0  0
    8.0325    3.5749    0.0000 H   0  0  0  0  0  0  0  0  0  0  0  0
    4.9132    2.5087    0.0000 H   0  0  0  0  0  0  0  0  0  0  0  0
   12.3219   -0.7889    0.0000 H   0  0  0  0  0  0  0  0  0  0  0  0
   13.0812   -1.2273    0.0000 H   0  0  0  0  0  0  0  0  0  0  0  0
   13.5196   -0.4680    0.0000 H   0  0  0  0  0  0  0  0  0  0  0  0
   11.5807   -2.0381    0.0000 H   0  0  0  0  0  0  0  0  0  0  0  0
   12.4146   -1.7671    0.0000 H   0  0  0  0  0  0  0  0  0  0  0  0
   12.1437   -0.9332    0.0000 H   0  0  0  0  0  0  0  0  0  0  0  0
    3.1793   -0.5030    0.0000 H   0  0  0  0  0  0  0  0  0  0  0  0
    2.6670   -1.1136    0.0000 H   0  0  0  0  0  0  0  0  0  0  0  0
    9.6927   -3.2963    0.0000 H   0  0  0  0  0  0  0  0  0  0  0  0
    8.1449   -3.8944    0.0000 H   0  0  0  0  0  0  0  0  0  0  0  0
    6.7911    4.6759    0.0000 H   0  0  0  0  0  0  0  0  0  0  0  0
    5.2209    4.1392    0.0000 H   0  0  0  0  0  0  0  0  0  0  0  0
   14.8816    2.0917    0.0000 H   0  0  0  0  0  0  0  0  0  0  0  0
   14.1554   -0.6186    0.0000 H   0  0  0  0  0  0  0  0  0  0  0  0
    4.4620   -2.5292    0.0000 H   0  0  0  0  0  0  0  0  0  0  0  0
    1.6987   -2.0419    0.0000 H   0  0  0  0  0  0  0  0  0  0  0  0
   16.4464    1.6724    0.0000 H   0  0  0  0  0  0  0  0  0  0  0  0
   15.7202   -1.0379    0.0000 H   0  0  0  0  0  0  0  0  0  0  0  0
    4.1807   -4.1246    0.0000 H   0  0  0  0  0  0  0  0  0  0  0  0
    1.4174   -3.6373    0.0000 H   0  0  0  0  0  0  0  0  0  0  0  0
   16.8657    0.1076    0.0000 H   0  0  0  0  0  0  0  0  0  0  0  0
    2.6584   -4.6786    0.0000 H   0  0  0  0  0  0  0  0  0  0  0  0
  1  9  1  0  0  0  0
  1 11  1  0  0  0  0
 10  2  1  6  0  0  0
  2 33  1  0  0  0  0
  3 26  2  0  0  0  0
  4 32  2  0  0  0  0
  5  9  1  0  0  0  0
  5 14  1  0  0  0  0
  5 18  1  0  0  0  0
  6 11  1  0  0  0  0
  6 15  1  0  0  0  0
  6 21  1  0  0  0  0
 12  7  1  6  0  0  0
  7 31  1  0  0  0  0
  7 32  1  0  0  0  0
  8 25  1  0  0  0  0
  8 26  1  0  0  0  0
  8 34  1  0  0  0  0
  9 10  1  0  0  0  0
  9 19  1  1  0  0  0
 10 12  1  0  0  0  0
 10 51  1  0  0  0  0
 11 13  1  0  0  0  0
 11 52  1  6  0  0  0
 12 13  1  0  0  0  0
 12 53  1  0  0  0  0
 13 54  1  0  0  0  0
 13 55  1  0  0  0  0
 14 15  2  0  0  0  0
 14 16  1  0  0  0  0
 15 17  1  0  0  0  0
 16 20  2  0  0  0  0
 16 22  1  0  0  0  0
 17 23  2  0  0  0  0
 17 24  1  0  0  0  0
 18 22  1  0  0  0  0
 18 27  2  0  0  0  0
 19 56  1  0  0  0  0
 19 57  1  0  0  0  0
 19 58  1  0  0  0  0
 20 23  1  0  0  0  0
 20 25  1  0  0  0  0
 21 24  1  0  0  0  0
 21 29  2  0  0  0  0
 22 28  2  0  0  0  0
 23 26  1  0  0  0  0
 24 30  2  0  0  0  0
 25 59  1  0  0  0  0
 25 60  1  0  0  0  0
 27 35  1  0  0  0  0
 27 61  1  0  0  0  0
 28 36  1  0  0  0  0
 28 62  1  0  0  0  0
 29 37  1  0  0  0  0
 29 63  1  0  0  0  0
 30 38  1  0  0  0  0
 30 64  1  0  0  0  0
 31 65  1  0  0  0  0
 31 66  1  0  0  0  0
 31 67  1  0  0  0  0
 32 39  1  0  0  0  0
 33 68  1  0  0  0  0
 33 69  1  0  0  0  0
 33 70  1  0  0  0  0
 34 40  1  0  0  0  0
 34 71  1  0  0  0  0
 34 72  1  0  0  0  0
 35 36  2  0  0  0  0
 35 73  1  0  0  0  0
 36 74  1  0  0  0  0
 37 38  2  0  0  0  0
 37 75  1  0  0  0  0
 38 76  1  0  0  0  0
 39 41  2  0  0  0  0
 39 42  1  0  0  0  0
 40 43  2  0  0  0  0
 40 44  1  0  0  0  0
 41 45  1  0  0  0  0
 41 77  1  0  0  0  0
 42 46  2  0  0  0  0
 42 78  1  0  0  0  0
 43 47  1  0  0  0  0
 43 79  1  0  0  0  0
 44 48  2  0  0  0  0
 44 80  1  0  0  0  0
 45 49  2  0  0  0  0
 45 81  1  0  0  0  0
 46 49  1  0  0  0  0
 46 82  1  0  0  0  0
 47 50  2  0  0  0  0
 47 83  1  0  0  0  0
 48 50  1  0  0  0  0
 48 84  1  0  0  0  0
 49 85  1  0  0  0  0
 50 86  1  0  0  0  0
M  END
> <PUBCHEM_COMPOUND_CID>
10484487

> <PUBCHEM_COMPOUND_CANONICALIZED>
1

> <PUBCHEM_CACTVS_COMPLEXITY>
1320

> <PUBCHEM_CACTVS_HBOND_ACCEPTOR>
4

> <PUBCHEM_CACTVS_HBOND_DONOR>
0

> <PUBCHEM_CACTVS_ROTATABLE_BOND>
5

> <PUBCHEM_CACTVS_SUBSKEYS>
AAADcfB/uAAAAAAAAAAAAAAAAAAAAWLFgAA0YMGDBYAAAFix/gAAHgAAAAAADDzhngYywPMMFACoAyVyVACCgCQlEiAI2CE4dNgLYPLA1ZGfIQhmhgDayYf82cOeyAACQAASACCQAASAACQAQAAAAAAAAA==

> <PUBCHEM_IUPAC_OPENEYE_NAME>
N-[(2R,3S,4S,6S)-17-benzyl-3-methoxy-2-methyl-16-oxo-29-oxa-1,7,17-triazaoctacyclo[12.12.2.12,6.07,28.08,13.015,19.020,27.021,26]nonacosa-8,10,12,14,19,21,23,25,27-nonaen-4-yl]-N-methyl-benzamide

> <PUBCHEM_IUPAC_CAS_NAME>
N-[(2R,3S,4S,6S)-3-methoxy-2-methyl-16-oxo-17-(phenylmethyl)-29-oxa-1,7,17-triazaoctacyclo[12.12.2.12,6.07,28.08,13.015,19.020,27.021,26]nonacosa-8,10,12,14,19,21,23,25,27-nonaen-4-yl]-N-methylbenzamide

> <PUBCHEM_IUPAC_NAME_MARKUP>
<I>N</I>-[(2<I>R</I>,3<I>S</I>,4<I>S</I>,6<I>S</I>)-17-benzyl-3-methoxy-2-methyl-16-oxo-29-oxa-1,7,17-triazaoctacyclo[12.12.2.1<SUP>2,6</SUP>.0<SUP>7,28</SUP>.0<SUP>8,13</SUP>.0<SUP>15,19</SUP>.0<SUP>20,27</SUP>.0<SUP>21,26</SUP>]nonacosa-8,10,12,14,19,21,23,25,27-nonaen-4-yl]-<I>N</I>-methylbenzamide

> <PUBCHEM_IUPAC_NAME>
N-[(2R,3S,4S,6S)-17-benzyl-3-methoxy-2-methyl-16-oxo-29-oxa-1,7,17-triazaoctacyclo[12.12.2.12,6.07,28.08,13.015,19.020,27.021,26]nonacosa-8,10,12,14,19,21,23,25,27-nonaen-4-yl]-N-methylbenzamide

> <PUBCHEM_IUPAC_SYSTEMATIC_NAME>
N-[(2R,3S,4S,6S)-3-methoxy-2-methyl-16-oxidanylidene-17-(phenylmethyl)-29-oxa-1,7,17-triazaoctacyclo[12.12.2.12,6.07,28.08,13.015,19.020,27.021,26]nonacosa-8,10,12,14,19,21,23,25,27-nonaen-4-yl]-N-methyl-benzamide

> <PUBCHEM_IUPAC_TRADITIONAL_NAME>
N-[(2R,3S,4S,6S)-17-benzyl-16-keto-3-methoxy-2-methyl-29-oxa-1,7,17-triazaoctacyclo[12.12.2.12,6.07,28.08,13.015,19.020,27.021,26]nonacosa-8,10,12,14,19,21,23,25,27-nonaen-4-yl]-N-methyl-benzamide

> <PUBCHEM_IUPAC_INCHI>
InChI=1S/C42H36N4O4/c1-42-39(49-3)32(43(2)40(47)26-16-8-5-9-17-26)22-33(50-42)45-30-20-12-10-18-27(30)35-36-29(24-44(41(36)48)23-25-14-6-4-7-15-25)34-28-19-11-13-21-31(28)46(42)38(34)37(35)45/h4-21,32-33,39H,22-24H2,1-3H3/t32-,33-,39-,42+/m0/s1

> <PUBCHEM_IUPAC_INCHIKEY>
ABNYYFBELSVSNV-DPAFENMKSA-N

> <PUBCHEM_XLOGP3_AA>
6.5

> <PUBCHEM_EXACT_MASS>
660.27365564

> <PUBCHEM_MOLECULAR_FORMULA>
C42H36N4O4

> <PUBCHEM_MOLECULAR_WEIGHT>
660.8

> <PUBCHEM_SMILES>
C[C@]12[C@H]([C@H](C[C@H](O1)N3C4=CC=CC=C4C5=C6C(=C7C8=CC=CC=C8N2C7=C53)CN(C6=O)CC9=CC=CC=C9)N(C)C(=O)C1=CC=CC=C1)OC

> <PUBCHEM_OPENEYE_CAN_SMILES>
CC12C(C(CC(O1)N3C4=CC=CC=C4C5=C6C(=C7C8=CC=CC=C8N2C7=C53)CN(C6=O)CC9=CC=CC=C9)N(C)C(=O)C1=CC=CC=C1)OC

> <PUBCHEM_OPENEYE_ISO_SMILES>
C[C@]12[C@H]([C@H](C[C@H](O1)N3C4=CC=CC=C4C5=C6C(=C7C8=CC=CC=C8N2C7=C53)CN(C6=O)CC9=CC=CC=C9)N(C)C(=O)C1=CC=CC=C1)OC

> <PUBCHEM_CACTVS_TPSA>
68.9

> <PUBCHEM_MONOISOTOPIC_WEIGHT>
660.27365564

> <PUBCHEM_TOTAL_CHARGE>
0

> <PUBCHEM_HEAVY_ATOM_COUNT>
50

> <PUBCHEM_ATOM_DEF_STEREO_COUNT>
4

> <PUBCHEM_ATOM_UDEF_STEREO_COUNT>
0

> <PUBCHEM_BOND_DEF_STEREO_COUNT>
0

> <PUBCHEM_BOND_UDEF_STEREO_COUNT>
0

> <PUBCHEM_ISOTOPIC_ATOM_COUNT>
0

> <PUBCHEM_COMPONENT_COUNT>
1

> <PUBCHEM_CACTVS_TAUTO_COUNT>
-1

> <PUBCHEM_COORDINATE_TYPE>
1
5
255

> <PUBCHEM_BONDANNOTATIONS>
11  52  6
14  15  8
14  16  8
15  17  8
16  20  8
16  22  8
17  23  8
17  24  8
18  22  8
18  27  8
10  2  6
20  23  8
21  24  8
21  29  8
22  28  8
24  30  8
27  35  8
28  36  8
29  37  8
30  38  8
35  36  8
37  38  8
39  41  8
39  42  8
40  43  8
40  44  8
41  45  8
42  46  8
43  47  8
44  48  8
45  49  8
46  49  8
47  50  8
48  50  8
5  14  8
5  18  8
6  15  8
6  21  8
12  7  6
9  19  5

$$$$
