24894997
  -OEChem-03202506402D

 61 65  0     0  0  0  0  0  0999 V2000
    4.3211   -1.8056    0.0000 O   0  0  0  0  0  0  0  0  0  0  0  0
    6.7523    4.3429    0.0000 O   0  0  0  0  0  0  0  0  0  0  0  0
    7.3440   -0.4105    0.0000 O   0  0  0  0  0  0  0  0  0  0  0  0
    9.3850    2.3885    0.0000 O   0  0  0  0  0  0  0  0  0  0  0  0
    9.1725    0.3998    0.0000 O   0  0  0  0  0  0  0  0  0  0  0  0
    4.6783   -0.1108    0.0000 N   0  0  0  0  0  0  0  0  0  0  0  0
    4.9917    4.0672    0.0000 N   0  0  0  0  0  0  0  0  0  0  0  0
    4.9889    2.4492    0.0000 C   0  0  0  0  0  0  0  0  0  0  0  0
    4.6783    1.4986    0.0000 C   0  0  0  0  0  0  0  0  0  0  0  0
    3.7320    1.1939    0.0000 C   0  0  0  0  0  0  0  0  0  0  0  0
    4.4026    3.2592    0.0000 C   0  0  0  0  0  0  0  0  0  0  0  0
    5.9405    2.7566    0.0000 C   0  0  0  0  0  0  0  0  0  0  0  0
    3.7320    0.1939    0.0000 C   0  0  0  0  0  0  0  0  0  0  0  0
    5.2619    0.6939    0.0000 C   0  0  0  0  0  0  0  0  0  0  0  0
    5.9422    3.7565    0.0000 C   0  0  0  0  0  0  0  0  0  0  0  0
    6.7485    2.1674    0.0000 C   0  0  0  0  0  0  0  0  0  0  0  0
    2.8660    1.6939    0.0000 C   0  0  0  0  0  0  0  0  0  0  0  0
    4.9889   -1.0613    0.0000 C   0  0  0  0  0  0  0  0  0  0  0  0
    2.8660   -0.3061    0.0000 C   0  0  0  0  0  0  0  0  0  0  0  0
    2.0000    1.1939    0.0000 C   0  0  0  0  0  0  0  0  0  0  0  0
    2.0000    0.1939    0.0000 C   0  0  0  0  0  0  0  0  0  0  0  0
    7.6628    2.5725    0.0000 C   0  0  0  0  0  0  0  0  0  0  0  0
    6.6423    1.1730    0.0000 C   0  0  0  0  0  0  0  0  0  0  0  0
    7.4503    0.5838    0.0000 C   0  0  0  0  0  0  0  0  0  0  0  0
    8.4708    1.9833    0.0000 C   0  0  0  0  0  0  0  0  0  0  0  0
    8.3645    0.9890    0.0000 C   0  0  0  0  0  0  0  0  0  0  0  0
    4.6318   -2.7562    0.0000 C   0  0  0  0  0  0  0  0  0  0  0  0
    3.9639   -3.5004    0.0000 C   0  0  0  0  0  0  0  0  0  0  0  0
    5.6103   -2.9624    0.0000 C   0  0  0  0  0  0  0  0  0  0  0  0
    8.1520   -0.9997    0.0000 C   0  0  0  0  0  0  0  0  0  0  0  0
    9.4913    3.3828    0.0000 C   0  0  0  0  0  0  0  0  0  0  0  0
   10.0868    0.8050    0.0000 C   0  0  0  0  0  0  0  0  0  0  0  0
    4.2746   -4.4510    0.0000 C   0  0  0  0  0  0  0  0  0  0  0  0
    5.9209   -3.9129    0.0000 C   0  0  0  0  0  0  0  0  0  0  0  0
    5.2531   -4.6572    0.0000 C   0  0  0  0  0  0  0  0  0  0  0  0
    3.9425    3.6749    0.0000 H   0  0  0  0  0  0  0  0  0  0  0  0
    3.9411    2.8451    0.0000 H   0  0  0  0  0  0  0  0  0  0  0  0
    5.8819    0.6939    0.0000 H   0  0  0  0  0  0  0  0  0  0  0  0
    4.8012    4.6572    0.0000 H   0  0  0  0  0  0  0  0  0  0  0  0
    2.8660    2.3139    0.0000 H   0  0  0  0  0  0  0  0  0  0  0  0
    5.3715   -1.5492    0.0000 H   0  0  0  0  0  0  0  0  0  0  0  0
    5.5359   -0.7693    0.0000 H   0  0  0  0  0  0  0  0  0  0  0  0
    2.8660   -0.9261    0.0000 H   0  0  0  0  0  0  0  0  0  0  0  0
    1.4631    1.5039    0.0000 H   0  0  0  0  0  0  0  0  0  0  0  0
    1.4631   -0.1161    0.0000 H   0  0  0  0  0  0  0  0  0  0  0  0
    7.7286    3.1890    0.0000 H   0  0  0  0  0  0  0  0  0  0  0  0
    6.0754    0.9218    0.0000 H   0  0  0  0  0  0  0  0  0  0  0  0
    3.3572   -3.3726    0.0000 H   0  0  0  0  0  0  0  0  0  0  0  0
    6.0243   -2.5009    0.0000 H   0  0  0  0  0  0  0  0  0  0  0  0
    7.7867   -1.5006    0.0000 H   0  0  0  0  0  0  0  0  0  0  0  0
    8.6530   -1.3650    0.0000 H   0  0  0  0  0  0  0  0  0  0  0  0
    8.5173   -0.4987    0.0000 H   0  0  0  0  0  0  0  0  0  0  0  0
   10.1078    3.3170    0.0000 H   0  0  0  0  0  0  0  0  0  0  0  0
    9.5571    3.9993    0.0000 H   0  0  0  0  0  0  0  0  0  0  0  0
    8.8748    3.4487    0.0000 H   0  0  0  0  0  0  0  0  0  0  0  0
   10.3380    0.2381    0.0000 H   0  0  0  0  0  0  0  0  0  0  0  0
   10.6536    1.0562    0.0000 H   0  0  0  0  0  0  0  0  0  0  0  0
    9.8356    1.3718    0.0000 H   0  0  0  0  0  0  0  0  0  0  0  0
    3.8605   -4.9124    0.0000 H   0  0  0  0  0  0  0  0  0  0  0  0
    6.5276   -4.0408    0.0000 H   0  0  0  0  0  0  0  0  0  0  0  0
    5.4457   -5.2465    0.0000 H   0  0  0  0  0  0  0  0  0  0  0  0
  1 18  1  0  0  0  0
  1 27  1  0  0  0  0
  2 15  2  0  0  0  0
  3 24  1  0  0  0  0
  3 30  1  0  0  0  0
  4 25  1  0  0  0  0
  4 31  1  0  0  0  0
  5 26  1  0  0  0  0
  5 32  1  0  0  0  0
  6 13  1  0  0  0  0
  6 14  1  0  0  0  0
  6 18  1  0  0  0  0
  7 11  1  0  0  0  0
  7 15  1  0  0  0  0
  7 39  1  0  0  0  0
  8  9  1  0  0  0  0
  8 11  1  0  0  0  0
  8 12  2  0  0  0  0
  9 10  1  0  0  0  0
  9 14  2  0  0  0  0
 10 13  1  0  0  0  0
 10 17  2  0  0  0  0
 11 36  1  0  0  0  0
 11 37  1  0  0  0  0
 12 15  1  0  0  0  0
 12 16  1  0  0  0  0
 13 19  2  0  0  0  0
 14 38  1  0  0  0  0
 16 22  2  0  0  0  0
 16 23  1  0  0  0  0
 17 20  1  0  0  0  0
 17 40  1  0  0  0  0
 18 41  1  0  0  0  0
 18 42  1  0  0  0  0
 19 21  1  0  0  0  0
 19 43  1  0  0  0  0
 20 21  2  0  0  0  0
 20 44  1  0  0  0  0
 21 45  1  0  0  0  0
 22 25  1  0  0  0  0
 22 46  1  0  0  0  0
 23 24  2  0  0  0  0
 23 47  1  0  0  0  0
 24 26  1  0  0  0  0
 25 26  2  0  0  0  0
 27 28  2  0  0  0  0
 27 29  1  0  0  0  0
 28 33  1  0  0  0  0
 28 48  1  0  0  0  0
 29 34  2  0  0  0  0
 29 49  1  0  0  0  0
 30 50  1  0  0  0  0
 30 51  1  0  0  0  0
 30 52  1  0  0  0  0
 31 53  1  0  0  0  0
 31 54  1  0  0  0  0
 31 55  1  0  0  0  0
 32 56  1  0  0  0  0
 32 57  1  0  0  0  0
 32 58  1  0  0  0  0
 33 35  2  0  0  0  0
 33 59  1  0  0  0  0
 34 35  1  0  0  0  0
 34 60  1  0  0  0  0
 35 61  1  0  0  0  0
M  END
> <PUBCHEM_COMPOUND_CID>
24894997

> <PUBCHEM_COMPOUND_CANONICALIZED>
1

> <PUBCHEM_CACTVS_COMPLEXITY>
752

> <PUBCHEM_CACTVS_HBOND_ACCEPTOR>
5

> <PUBCHEM_CACTVS_HBOND_DONOR>
1

> <PUBCHEM_CACTVS_ROTATABLE_BOND>
8

> <PUBCHEM_CACTVS_SUBSKEYS>
AAADceB7OAAAAAAAAAAAAAAAAAAAAWIAAAAwYMAAAAAAAFgB9AAAHgAQAAAADAzBngY+xvPMFACoAzV3VACCiCAxIiAI2KE+7NgNJ/LEtZuMMCplxhXK6QeY/P7OoAABCAACQABAAAIQAASAAAAAAAAAAA==

> <PUBCHEM_IUPAC_OPENEYE_NAME>
3-[1-(phenoxymethyl)indol-3-yl]-4-(3,4,5-trimethoxyphenyl)-1,2-dihydropyrrol-5-one

> <PUBCHEM_IUPAC_CAS_NAME>
3-[1-(phenoxymethyl)-3-indolyl]-4-(3,4,5-trimethoxyphenyl)-1,2-dihydropyrrol-5-one

> <PUBCHEM_IUPAC_NAME_MARKUP>
3-[1-(phenoxymethyl)indol-3-yl]-4-(3,4,5-trimethoxyphenyl)-1,2-dihydropyrrol-5-one

> <PUBCHEM_IUPAC_NAME>
3-[1-(phenoxymethyl)indol-3-yl]-4-(3,4,5-trimethoxyphenyl)-1,2-dihydropyrrol-5-one

> <PUBCHEM_IUPAC_SYSTEMATIC_NAME>
3-[1-(phenoxymethyl)indol-3-yl]-4-(3,4,5-trimethoxyphenyl)-1,2-dihydropyrrol-5-one

> <PUBCHEM_IUPAC_TRADITIONAL_NAME>
4-[1-(phenoxymethyl)indol-3-yl]-3-(3,4,5-trimethoxyphenyl)-3-pyrrolin-2-one

> <PUBCHEM_IUPAC_INCHI>
InChI=1S/C28H26N2O5/c1-32-24-13-18(14-25(33-2)27(24)34-3)26-21(15-29-28(26)31)22-16-30(23-12-8-7-11-20(22)23)17-35-19-9-5-4-6-10-19/h4-14,16H,15,17H2,1-3H3,(H,29,31)

> <PUBCHEM_IUPAC_INCHIKEY>
GCWMGQFAGIVZCJ-UHFFFAOYSA-N

> <PUBCHEM_XLOGP3_AA>
4.1

> <PUBCHEM_EXACT_MASS>
470.18417193

> <PUBCHEM_MOLECULAR_FORMULA>
C28H26N2O5

> <PUBCHEM_MOLECULAR_WEIGHT>
470.5

> <PUBCHEM_SMILES>
COC1=CC(=CC(=C1OC)OC)C2=C(CNC2=O)C3=CN(C4=CC=CC=C43)COC5=CC=CC=C5

> <PUBCHEM_OPENEYE_CAN_SMILES>
COC1=CC(=CC(=C1OC)OC)C2=C(CNC2=O)C3=CN(C4=CC=CC=C43)COC5=CC=CC=C5

> <PUBCHEM_OPENEYE_ISO_SMILES>
COC1=CC(=CC(=C1OC)OC)C2=C(CNC2=O)C3=CN(C4=CC=CC=C43)COC5=CC=CC=C5

> <PUBCHEM_CACTVS_TPSA>
71

> <PUBCHEM_MONOISOTOPIC_WEIGHT>
470.18417193

> <PUBCHEM_TOTAL_CHARGE>
0

> <PUBCHEM_HEAVY_ATOM_COUNT>
35

> <PUBCHEM_ATOM_DEF_STEREO_COUNT>
0

> <PUBCHEM_ATOM_UDEF_STEREO_COUNT>
0

> <PUBCHEM_BOND_DEF_STEREO_COUNT>
0

> <PUBCHEM_BOND_UDEF_STEREO_COUNT>
0

> <PUBCHEM_ISOTOPIC_ATOM_COUNT>
0

> <PUBCHEM_COMPONENT_COUNT>
1

> <PUBCHEM_CACTVS_TAUTO_COUNT>
-1

> <PUBCHEM_COORDINATE_TYPE>
1
5
255

> <PUBCHEM_BONDANNOTATIONS>
10  13  8
10  17  8
13  19  8
16  22  8
16  23  8
17  20  8
19  21  8
20  21  8
22  25  8
23  24  8
24  26  8
25  26  8
27  28  8
27  29  8
28  33  8
29  34  8
33  35  8
34  35  8
6  13  8
6  14  8
9  10  8
9  14  8

$$$$
