49830692
  -OEChem-03202503582D

 35 37  0     0  0  0  0  0  0999 V2000
    2.9176   -0.6981    0.0000 F   0  0  0  0  0  0  0  0  0  0  0  0
    2.9176   -4.7673    0.0000 F   0  0  0  0  0  0  0  0  0  0  0  0
    7.2641    4.7673    0.0000 F   0  0  0  0  0  0  0  0  0  0  0  0
    8.2641    3.7673    0.0000 F   0  0  0  0  0  0  0  0  0  0  0  0
    6.2641    3.7673    0.0000 F   0  0  0  0  0  0  0  0  0  0  0  0
    6.3981   -0.7327    0.0000 O   0  0  0  0  0  0  0  0  0  0  0  0
    4.6660   -0.7327    0.0000 N   0  0  0  0  0  0  0  0  0  0  0  0
    4.6660   -3.7327    0.0000 N   0  0  0  0  0  0  0  0  0  0  0  0
    5.5321    0.7673    0.0000 N   0  0  0  0  0  0  0  0  0  0  0  0
    6.3981    2.2673    0.0000 N   0  0  0  0  0  0  0  0  0  0  0  0
    3.8000   -2.2327    0.0000 C   0  0  0  0  0  0  0  0  0  0  0  0
    4.6660   -1.7327    0.0000 C   0  0  0  0  0  0  0  0  0  0  0  0
    3.8000   -3.2327    0.0000 C   0  0  0  0  0  0  0  0  0  0  0  0
    2.9061   -1.6980    0.0000 C   0  0  0  0  0  0  0  0  0  0  0  0
    5.5321   -2.2327    0.0000 C   0  0  0  0  0  0  0  0  0  0  0  0
    2.9061   -3.7674    0.0000 C   0  0  0  0  0  0  0  0  0  0  0  0
    2.0000   -2.2119    0.0000 C   0  0  0  0  0  0  0  0  0  0  0  0
    2.0000   -3.2535    0.0000 C   0  0  0  0  0  0  0  0  0  0  0  0
    5.5321   -3.2327    0.0000 C   0  0  0  0  0  0  0  0  0  0  0  0
    5.5321   -0.2327    0.0000 C   0  0  0  0  0  0  0  0  0  0  0  0
    6.3981    1.2673    0.0000 C   0  0  0  0  0  0  0  0  0  0  0  0
    7.2641    2.7673    0.0000 C   0  0  0  0  0  0  0  0  0  0  0  0
    7.2641    0.7673    0.0000 C   0  0  0  0  0  0  0  0  0  0  0  0
    8.1301    2.2673    0.0000 C   0  0  0  0  0  0  0  0  0  0  0  0
    8.1301    1.2673    0.0000 C   0  0  0  0  0  0  0  0  0  0  0  0
    7.2641    3.7673    0.0000 C   0  0  0  0  0  0  0  0  0  0  0  0
    6.0690   -1.9227    0.0000 H   0  0  0  0  0  0  0  0  0  0  0  0
    4.1291   -0.4227    0.0000 H   0  0  0  0  0  0  0  0  0  0  0  0
    1.4643   -1.8998    0.0000 H   0  0  0  0  0  0  0  0  0  0  0  0
    1.4643   -3.5656    0.0000 H   0  0  0  0  0  0  0  0  0  0  0  0
    6.0690   -3.5427    0.0000 H   0  0  0  0  0  0  0  0  0  0  0  0
    4.9951    1.0773    0.0000 H   0  0  0  0  0  0  0  0  0  0  0  0
    7.2641    0.1473    0.0000 H   0  0  0  0  0  0  0  0  0  0  0  0
    8.6671    2.5773    0.0000 H   0  0  0  0  0  0  0  0  0  0  0  0
    8.6671    0.9573    0.0000 H   0  0  0  0  0  0  0  0  0  0  0  0
  1 14  1  0  0  0  0
  2 16  1  0  0  0  0
  3 26  1  0  0  0  0
  4 26  1  0  0  0  0
  5 26  1  0  0  0  0
  6 20  2  0  0  0  0
  7 12  1  0  0  0  0
  7 20  1  0  0  0  0
  7 28  1  0  0  0  0
  8 13  1  0  0  0  0
  8 19  2  0  0  0  0
  9 20  1  0  0  0  0
  9 21  1  0  0  0  0
  9 32  1  0  0  0  0
 10 21  1  0  0  0  0
 10 22  2  0  0  0  0
 11 12  1  0  0  0  0
 11 13  1  0  0  0  0
 11 14  2  0  0  0  0
 12 15  2  0  0  0  0
 13 16  2  0  0  0  0
 14 17  1  0  0  0  0
 15 19  1  0  0  0  0
 15 27  1  0  0  0  0
 16 18  1  0  0  0  0
 17 18  2  0  0  0  0
 17 29  1  0  0  0  0
 18 30  1  0  0  0  0
 19 31  1  0  0  0  0
 21 23  2  0  0  0  0
 22 24  1  0  0  0  0
 22 26  1  0  0  0  0
 23 25  1  0  0  0  0
 23 33  1  0  0  0  0
 24 25  2  0  0  0  0
 24 34  1  0  0  0  0
 25 35  1  0  0  0  0
M  END
> <PUBCHEM_COMPOUND_CID>
49830692

> <PUBCHEM_COMPOUND_CANONICALIZED>
1

> <PUBCHEM_CACTVS_COMPLEXITY>
506

> <PUBCHEM_CACTVS_HBOND_ACCEPTOR>
8

> <PUBCHEM_CACTVS_HBOND_DONOR>
2

> <PUBCHEM_CACTVS_ROTATABLE_BOND>
2

> <PUBCHEM_CACTVS_SUBSKEYS>
AAADccB7ocAAAAAAAAAAAAAAAAAAAAAAAAA8WIAAAAAAAACx/AAAHwAQAAAADAjBHhw98PLIEACoAzZndACCgCkxAiAJ2CA4ZJiIIOLA0dGEJAholQLIyCcQgIAOAAAAAAACAAAAAAAAAAQAAAAAAAAAAA==

> <PUBCHEM_IUPAC_OPENEYE_NAME>
1-(5,8-difluoro-4-quinolyl)-3-[6-(trifluoromethyl)-2-pyridyl]urea

> <PUBCHEM_IUPAC_CAS_NAME>
1-(5,8-difluoro-4-quinolinyl)-3-[6-(trifluoromethyl)-2-pyridinyl]urea

> <PUBCHEM_IUPAC_NAME_MARKUP>
1-(5,8-difluoroquinolin-4-yl)-3-[6-(trifluoromethyl)pyridin-2-yl]urea

> <PUBCHEM_IUPAC_NAME>
1-(5,8-difluoroquinolin-4-yl)-3-[6-(trifluoromethyl)pyridin-2-yl]urea

> <PUBCHEM_IUPAC_SYSTEMATIC_NAME>
1-[5,8-bis(fluoranyl)quinolin-4-yl]-3-[6-(trifluoromethyl)pyridin-2-yl]urea

> <PUBCHEM_IUPAC_TRADITIONAL_NAME>
1-(5,8-difluoro-4-quinolyl)-3-[6-(trifluoromethyl)-2-pyridyl]urea

> <PUBCHEM_IUPAC_INCHI>
InChI=1S/C16H9F5N4O/c17-8-4-5-9(18)14-13(8)10(6-7-22-14)23-15(26)25-12-3-1-2-11(24-12)16(19,20)21/h1-7H,(H2,22,23,24,25,26)

> <PUBCHEM_IUPAC_INCHIKEY>
ZAEAGGGBPKOFMY-UHFFFAOYSA-N

> <PUBCHEM_XLOGP3_AA>
3.1

> <PUBCHEM_EXACT_MASS>
368.06965173

> <PUBCHEM_MOLECULAR_FORMULA>
C16H9F5N4O

> <PUBCHEM_MOLECULAR_WEIGHT>
368.26

> <PUBCHEM_SMILES>
C1=CC(=NC(=C1)NC(=O)NC2=CC=NC3=C(C=CC(=C23)F)F)C(F)(F)F

> <PUBCHEM_OPENEYE_CAN_SMILES>
C1=CC(=NC(=C1)NC(=O)NC2=CC=NC3=C(C=CC(=C23)F)F)C(F)(F)F

> <PUBCHEM_OPENEYE_ISO_SMILES>
C1=CC(=NC(=C1)NC(=O)NC2=CC=NC3=C(C=CC(=C23)F)F)C(F)(F)F

> <PUBCHEM_CACTVS_TPSA>
66.9

> <PUBCHEM_MONOISOTOPIC_WEIGHT>
368.06965173

> <PUBCHEM_TOTAL_CHARGE>
0

> <PUBCHEM_HEAVY_ATOM_COUNT>
26

> <PUBCHEM_ATOM_DEF_STEREO_COUNT>
0

> <PUBCHEM_ATOM_UDEF_STEREO_COUNT>
0

> <PUBCHEM_BOND_DEF_STEREO_COUNT>
0

> <PUBCHEM_BOND_UDEF_STEREO_COUNT>
0

> <PUBCHEM_ISOTOPIC_ATOM_COUNT>
0

> <PUBCHEM_COMPONENT_COUNT>
1

> <PUBCHEM_CACTVS_TAUTO_COUNT>
-1

> <PUBCHEM_COORDINATE_TYPE>
1
5
255

> <PUBCHEM_BONDANNOTATIONS>
10  21  8
10  22  8
11  12  8
11  13  8
11  14  8
12  15  8
13  16  8
14  17  8
15  19  8
16  18  8
17  18  8
21  23  8
22  24  8
23  25  8
24  25  8
8  13  8
8  19  8

$$$$
