46215814
  -OEChem-03202500282D

 27 29  0     0  0  0  0  0  0999 V2000
    7.2764   -0.0081    0.0000 N   0  0  0  0  0  0  0  0  0  0  0  0
    7.8600    0.7966    0.0000 N   0  0  0  0  0  0  0  0  0  0  0  0
    7.5870    2.5519    0.0000 N   0  0  0  0  0  0  0  0  0  0  0  0
    3.7320   -1.2034    0.0000 N   0  0  0  0  0  0  0  0  0  0  0  0
    2.0000   -1.2034    0.0000 N   0  0  0  0  0  0  0  0  0  0  0  0
    2.8660   -2.7034    0.0000 N   0  0  0  0  0  0  0  0  0  0  0  0
    6.3301    0.2966    0.0000 C   0  0  0  0  0  0  0  0  0  0  0  0
    6.3301    1.2966    0.0000 C   0  0  0  0  0  0  0  0  0  0  0  0
    4.5981    0.2966    0.0000 C   0  0  0  0  0  0  0  0  0  0  0  0
    5.4641   -0.2034    0.0000 C   0  0  0  0  0  0  0  0  0  0  0  0
    5.4641    1.7966    0.0000 C   0  0  0  0  0  0  0  0  0  0  0  0
    4.5981    1.2966    0.0000 C   0  0  0  0  0  0  0  0  0  0  0  0
    7.2764    1.6014    0.0000 C   0  0  0  0  0  0  0  0  0  0  0  0
    3.7320   -0.2034    0.0000 C   0  0  0  0  0  0  0  0  0  0  0  0
    2.8660    0.2966    0.0000 C   0  0  0  0  0  0  0  0  0  0  0  0
    2.0000   -0.2034    0.0000 C   0  0  0  0  0  0  0  0  0  0  0  0
    2.8660   -1.7034    0.0000 C   0  0  0  0  0  0  0  0  0  0  0  0
    5.4641   -0.8234    0.0000 H   0  0  0  0  0  0  0  0  0  0  0  0
    5.4641    2.4166    0.0000 H   0  0  0  0  0  0  0  0  0  0  0  0
    4.0611    1.6066    0.0000 H   0  0  0  0  0  0  0  0  0  0  0  0
    7.4690   -0.5974    0.0000 H   0  0  0  0  0  0  0  0  0  0  0  0
    2.8660    0.9166    0.0000 H   0  0  0  0  0  0  0  0  0  0  0  0
    8.1937    2.6798    0.0000 H   0  0  0  0  0  0  0  0  0  0  0  0
    7.1730    3.0134    0.0000 H   0  0  0  0  0  0  0  0  0  0  0  0
    1.4631    0.1066    0.0000 H   0  0  0  0  0  0  0  0  0  0  0  0
    2.3291   -3.0134    0.0000 H   0  0  0  0  0  0  0  0  0  0  0  0
    3.4030   -3.0134    0.0000 H   0  0  0  0  0  0  0  0  0  0  0  0
  1  2  1  0  0  0  0
  1  7  1  0  0  0  0
  1 21  1  0  0  0  0
  2 13  2  0  0  0  0
  3 13  1  0  0  0  0
  3 23  1  0  0  0  0
  3 24  1  0  0  0  0
  4 14  2  0  0  0  0
  4 17  1  0  0  0  0
  5 16  1  0  0  0  0
  5 17  2  0  0  0  0
  6 17  1  0  0  0  0
  6 26  1  0  0  0  0
  6 27  1  0  0  0  0
  7  8  2  0  0  0  0
  7 10  1  0  0  0  0
  8 11  1  0  0  0  0
  8 13  1  0  0  0  0
  9 10  2  0  0  0  0
  9 12  1  0  0  0  0
  9 14  1  0  0  0  0
 10 18  1  0  0  0  0
 11 12  2  0  0  0  0
 11 19  1  0  0  0  0
 12 20  1  0  0  0  0
 14 15  1  0  0  0  0
 15 16  2  0  0  0  0
 15 22  1  0  0  0  0
 16 25  1  0  0  0  0
M  END
> <PUBCHEM_COMPOUND_CID>
46215814

> <PUBCHEM_COMPOUND_CANONICALIZED>
1

> <PUBCHEM_CACTVS_COMPLEXITY>
273

> <PUBCHEM_CACTVS_HBOND_ACCEPTOR>
5

> <PUBCHEM_CACTVS_HBOND_DONOR>
3

> <PUBCHEM_CACTVS_ROTATABLE_BOND>
1

> <PUBCHEM_CACTVS_SUBSKEYS>
AAADccBzgAAAAAAAAAAAAAAAAAAAAWAAAAA8QAAAAAAAAFgB/AAAHAAYAAAADAjBHgQ98PZrEACiAzZnZACShCsxAqAd+SA4ZJiIKKLA2dGEpAh4mAJIyCcQgMAOQAAAQAACAACAAACAAAQAAAAAAAAAAA==

> <PUBCHEM_IUPAC_OPENEYE_NAME>
6-(2-aminopyrimidin-4-yl)-1H-indazol-3-amine

> <PUBCHEM_IUPAC_CAS_NAME>
6-(2-amino-4-pyrimidinyl)-1H-indazol-3-amine

> <PUBCHEM_IUPAC_NAME_MARKUP>
6-(2-aminopyrimidin-4-yl)-1<I>H</I>-indazol-3-amine

> <PUBCHEM_IUPAC_NAME>
6-(2-aminopyrimidin-4-yl)-1H-indazol-3-amine

> <PUBCHEM_IUPAC_SYSTEMATIC_NAME>
6-(2-azanylpyrimidin-4-yl)-1H-indazol-3-amine

> <PUBCHEM_IUPAC_TRADITIONAL_NAME>
[4-(3-amino-1H-indazol-6-yl)pyrimidin-2-yl]amine

> <PUBCHEM_IUPAC_INCHI>
InChI=1S/C11H10N6/c12-10-7-2-1-6(5-9(7)16-17-10)8-3-4-14-11(13)15-8/h1-5H,(H3,12,16,17)(H2,13,14,15)

> <PUBCHEM_IUPAC_INCHIKEY>
QVWIVWPIJUYRRF-UHFFFAOYSA-N

> <PUBCHEM_XLOGP3_AA>
0.8

> <PUBCHEM_EXACT_MASS>
226.09669434

> <PUBCHEM_MOLECULAR_FORMULA>
C11H10N6

> <PUBCHEM_MOLECULAR_WEIGHT>
226.24

> <PUBCHEM_SMILES>
C1=CC2=C(C=C1C3=NC(=NC=C3)N)NN=C2N

> <PUBCHEM_OPENEYE_CAN_SMILES>
C1=CC2=C(C=C1C3=NC(=NC=C3)N)NN=C2N

> <PUBCHEM_OPENEYE_ISO_SMILES>
C1=CC2=C(C=C1C3=NC(=NC=C3)N)NN=C2N

> <PUBCHEM_CACTVS_TPSA>
107

> <PUBCHEM_MONOISOTOPIC_WEIGHT>
226.09669434

> <PUBCHEM_TOTAL_CHARGE>
0

> <PUBCHEM_HEAVY_ATOM_COUNT>
17

> <PUBCHEM_ATOM_DEF_STEREO_COUNT>
0

> <PUBCHEM_ATOM_UDEF_STEREO_COUNT>
0

> <PUBCHEM_BOND_DEF_STEREO_COUNT>
0

> <PUBCHEM_BOND_UDEF_STEREO_COUNT>
0

> <PUBCHEM_ISOTOPIC_ATOM_COUNT>
0

> <PUBCHEM_COMPONENT_COUNT>
1

> <PUBCHEM_CACTVS_TAUTO_COUNT>
-1

> <PUBCHEM_COORDINATE_TYPE>
1
5
255

> <PUBCHEM_BONDANNOTATIONS>
1  2  8
1  7  8
11  12  8
14  15  8
15  16  8
2  13  8
4  14  8
4  17  8
5  16  8
5  17  8
7  10  8
7  8  8
8  11  8
8  13  8
9  10  8
9  12  8

$$$$
