53354074
  -OEChem-03202504562D

 53 56  0     1  0  0  0  0  0999 V2000
    5.9209    0.8395    0.0000 Cl  0  0  0  0  0  0  0  0  0  0  0  0
    6.6353   -2.5501    0.0000 F   0  0  0  0  0  0  0  0  0  0  0  0
    4.8679    2.7618    0.0000 O   0  0  0  0  0  0  0  0  0  0  0  0
    2.6282    1.9157    0.0000 N   0  0  0  0  0  0  0  0  0  0  0  0
    3.9639    0.4271    0.0000 N   0  0  3  0  0  0  0  0  0  0  0  0
    4.3211   -1.2677    0.0000 N   0  0  0  0  0  0  0  0  0  0  0  0
    5.2619   -3.7673    0.0000 N   0  0  0  0  0  0  0  0  0  0  0  0
    4.6783   -4.5720    0.0000 N   0  0  0  0  0  0  0  0  0  0  0  0
    2.8660   -4.7673    0.0000 N   0  0  0  0  0  0  0  0  0  0  0  0
    3.6067    2.1219    0.0000 C   0  0  2  0  0  0  0  0  0  0  0  0
    3.9174    3.0724    0.0000 C   0  0  1  0  0  0  0  0  0  0  0  0
    4.2746    1.3776    0.0000 C   0  0  0  0  0  0  0  0  0  0  0  0
    4.2280    4.0230    0.0000 C   0  0  0  0  0  0  0  0  0  0  0  0
    2.3176    0.9652    0.0000 C   0  0  0  0  0  0  0  0  0  0  0  0
    2.9854    0.2209    0.0000 C   0  0  0  0  0  0  0  0  0  0  0  0
    2.9669    3.3831    0.0000 C   0  0  0  0  0  0  0  0  0  0  0  0
    3.5602    4.7673    0.0000 C   0  0  0  0  0  0  0  0  0  0  0  0
    5.2066    4.2292    0.0000 C   0  0  0  0  0  0  0  0  0  0  0  0
    4.6318   -0.3172    0.0000 C   0  0  0  0  0  0  0  0  0  0  0  0
    5.6103   -0.1110    0.0000 C   0  0  0  0  0  0  0  0  0  0  0  0
    4.9889   -2.0120    0.0000 C   0  0  0  0  0  0  0  0  0  0  0  0
    6.2781   -0.8553    0.0000 C   0  0  0  0  0  0  0  0  0  0  0  0
    5.9674   -1.8058    0.0000 C   0  0  0  0  0  0  0  0  0  0  0  0
    4.6783   -2.9625    0.0000 C   0  0  0  0  0  0  0  0  0  0  0  0
    3.7320   -3.2673    0.0000 C   0  0  0  0  0  0  0  0  0  0  0  0
    3.7320   -4.2673    0.0000 C   0  0  0  0  0  0  0  0  0  0  0  0
    2.8660   -2.7673    0.0000 C   0  0  0  0  0  0  0  0  0  0  0  0
    2.0000   -3.2673    0.0000 C   0  0  0  0  0  0  0  0  0  0  0  0
    2.0000   -4.2673    0.0000 C   0  0  0  0  0  0  0  0  0  0  0  0
    3.0391    2.7546    0.0000 H   0  0  0  0  0  0  0  0  0  0  0  0
    4.8215    1.0856    0.0000 H   0  0  0  0  0  0  0  0  0  0  0  0
    4.6571    1.8655    0.0000 H   0  0  0  0  0  0  0  0  0  0  0  0
    4.4207    4.6123    0.0000 H   0  0  0  0  0  0  0  0  0  0  0  0
    2.2142    2.3772    0.0000 H   0  0  0  0  0  0  0  0  0  0  0  0
    1.7706    1.2572    0.0000 H   0  0  0  0  0  0  0  0  0  0  0  0
    1.9350    0.4773    0.0000 H   0  0  0  0  0  0  0  0  0  0  0  0
    2.4590   -0.1068    0.0000 H   0  0  0  0  0  0  0  0  0  0  0  0
    3.2167   -0.3544    0.0000 H   0  0  0  0  0  0  0  0  0  0  0  0
    3.1595    3.9724    0.0000 H   0  0  0  0  0  0  0  0  0  0  0  0
    2.3776    3.5757    0.0000 H   0  0  0  0  0  0  0  0  0  0  0  0
    2.7743    2.7938    0.0000 H   0  0  0  0  0  0  0  0  0  0  0  0
    4.0217    5.1813    0.0000 H   0  0  0  0  0  0  0  0  0  0  0  0
    3.1461    5.2287    0.0000 H   0  0  0  0  0  0  0  0  0  0  0  0
    3.0987    4.3532    0.0000 H   0  0  0  0  0  0  0  0  0  0  0  0
    5.3344    3.6225    0.0000 H   0  0  0  0  0  0  0  0  0  0  0  0
    5.8132    4.3570    0.0000 H   0  0  0  0  0  0  0  0  0  0  0  0
    5.0787    4.8359    0.0000 H   0  0  0  0  0  0  0  0  0  0  0  0
    5.3294    3.1758    0.0000 H   0  0  0  0  0  0  0  0  0  0  0  0
    6.8848   -0.7274    0.0000 H   0  0  0  0  0  0  0  0  0  0  0  0
    5.8819   -3.7673    0.0000 H   0  0  0  0  0  0  0  0  0  0  0  0
    2.8660   -2.1473    0.0000 H   0  0  0  0  0  0  0  0  0  0  0  0
    1.4631   -2.9573    0.0000 H   0  0  0  0  0  0  0  0  0  0  0  0
    1.4631   -4.5773    0.0000 H   0  0  0  0  0  0  0  0  0  0  0  0
  1 20  1  0  0  0  0
  2 23  1  0  0  0  0
 11  3  1  6  0  0  0
  3 48  1  0  0  0  0
  4 10  1  0  0  0  0
  4 14  1  0  0  0  0
  4 34  1  0  0  0  0
  5 12  1  0  0  0  0
  5 15  1  0  0  0  0
  5 19  1  0  0  0  0
  6 19  1  0  0  0  0
  6 21  2  0  0  0  0
  7  8  1  0  0  0  0
  7 24  1  0  0  0  0
  7 50  1  0  0  0  0
  8 26  2  0  0  0  0
  9 26  1  0  0  0  0
  9 29  2  0  0  0  0
 10 11  1  0  0  0  0
 10 12  1  0  0  0  0
 10 30  1  1  0  0  0
 11 13  1  0  0  0  0
 11 16  1  0  0  0  0
 12 31  1  0  0  0  0
 12 32  1  0  0  0  0
 13 17  1  0  0  0  0
 13 18  1  0  0  0  0
 13 33  1  0  0  0  0
 14 15  1  0  0  0  0
 14 35  1  0  0  0  0
 14 36  1  0  0  0  0
 15 37  1  0  0  0  0
 15 38  1  0  0  0  0
 16 39  1  0  0  0  0
 16 40  1  0  0  0  0
 16 41  1  0  0  0  0
 17 42  1  0  0  0  0
 17 43  1  0  0  0  0
 17 44  1  0  0  0  0
 18 45  1  0  0  0  0
 18 46  1  0  0  0  0
 18 47  1  0  0  0  0
 19 20  2  0  0  0  0
 20 22  1  0  0  0  0
 21 23  1  0  0  0  0
 21 24  1  0  0  0  0
 22 23  2  0  0  0  0
 22 49  1  0  0  0  0
 24 25  2  0  0  0  0
 25 26  1  0  0  0  0
 25 27  1  0  0  0  0
 27 28  2  0  0  0  0
 27 51  1  0  0  0  0
 28 29  1  0  0  0  0
 28 52  1  0  0  0  0
 29 53  1  0  0  0  0
M  END
> <PUBCHEM_COMPOUND_CID>
53354074

> <PUBCHEM_COMPOUND_CANONICALIZED>
1

> <PUBCHEM_CACTVS_COMPLEXITY>
573

> <PUBCHEM_CACTVS_HBOND_ACCEPTOR>
7

> <PUBCHEM_CACTVS_HBOND_DONOR>
3

> <PUBCHEM_CACTVS_ROTATABLE_BOND>
4

> <PUBCHEM_CACTVS_SUBSKEYS>
AAADceB7oQAEAAAAAAAAAAAAAAAAAWAAAAAsWLAAAAAAAFgB/gAAHwIYCAAADW7Bnyw/sN/rEgCiAzZnZACShCsxB6Ad+aA4ZpiKaOLB29HU5AhqmALYyCcQgMAOgAAAAAAAAAAAAAAAAAAAAAAAAAAAAA==

> <PUBCHEM_IUPAC_OPENEYE_NAME>
(2R)-2-[(2S)-4-[3-chloro-5-fluoro-6-(2H-pyrazolo[3,4-b]pyridin-3-yl)-2-pyridyl]piperazin-2-yl]-3-methyl-butan-2-ol

> <PUBCHEM_IUPAC_CAS_NAME>
(2R)-2-[(2S)-4-[3-chloro-5-fluoro-6-(2H-pyrazolo[3,4-b]pyridin-3-yl)-2-pyridinyl]-2-piperazinyl]-3-methyl-2-butanol

> <PUBCHEM_IUPAC_NAME_MARKUP>
(2<I>R</I>)-2-[(2<I>S</I>)-4-[3-chloro-5-fluoro-6-(2<I>H</I>-pyrazolo[3,4-b]pyridin-3-yl)pyridin-2-yl]piperazin-2-yl]-3-methylbutan-2-ol

> <PUBCHEM_IUPAC_NAME>
(2R)-2-[(2S)-4-[3-chloro-5-fluoro-6-(2H-pyrazolo[3,4-b]pyridin-3-yl)pyridin-2-yl]piperazin-2-yl]-3-methylbutan-2-ol

> <PUBCHEM_IUPAC_SYSTEMATIC_NAME>
(2R)-2-[(2S)-4-[3-chloranyl-5-fluoranyl-6-(2H-pyrazolo[3,4-b]pyridin-3-yl)pyridin-2-yl]piperazin-2-yl]-3-methyl-butan-2-ol

> <PUBCHEM_IUPAC_TRADITIONAL_NAME>
(2R)-2-[(2S)-4-[3-chloro-5-fluoro-6-(2H-pyrazolo[3,4-b]pyridin-3-yl)-2-pyridyl]piperazin-2-yl]-3-methyl-butan-2-ol

> <PUBCHEM_IUPAC_INCHI>
InChI=1S/C20H24ClFN6O/c1-11(2)20(3,29)15-10-28(8-7-23-15)19-13(21)9-14(22)17(25-19)16-12-5-4-6-24-18(12)27-26-16/h4-6,9,11,15,23,29H,7-8,10H2,1-3H3,(H,24,26,27)/t15-,20+/m0/s1

> <PUBCHEM_IUPAC_INCHIKEY>
HXWARSZQGAFXJM-MGPUTAFESA-N

> <PUBCHEM_XLOGP3_AA>
2.9

> <PUBCHEM_EXACT_MASS>
418.1684153

> <PUBCHEM_MOLECULAR_FORMULA>
C20H24ClFN6O

> <PUBCHEM_MOLECULAR_WEIGHT>
418.9

> <PUBCHEM_SMILES>
CC(C)[C@](C)([C@@H]1CN(CCN1)C2=C(C=C(C(=N2)C3=C4C=CC=NC4=NN3)F)Cl)O

> <PUBCHEM_OPENEYE_CAN_SMILES>
CC(C)C(C)(C1CN(CCN1)C2=C(C=C(C(=N2)C3=C4C=CC=NC4=NN3)F)Cl)O

> <PUBCHEM_OPENEYE_ISO_SMILES>
CC(C)[C@](C)([C@@H]1CN(CCN1)C2=C(C=C(C(=N2)C3=C4C=CC=NC4=NN3)F)Cl)O

> <PUBCHEM_CACTVS_TPSA>
90

> <PUBCHEM_MONOISOTOPIC_WEIGHT>
418.1684153

> <PUBCHEM_TOTAL_CHARGE>
0

> <PUBCHEM_HEAVY_ATOM_COUNT>
29

> <PUBCHEM_ATOM_DEF_STEREO_COUNT>
2

> <PUBCHEM_ATOM_UDEF_STEREO_COUNT>
0

> <PUBCHEM_BOND_DEF_STEREO_COUNT>
0

> <PUBCHEM_BOND_UDEF_STEREO_COUNT>
0

> <PUBCHEM_ISOTOPIC_ATOM_COUNT>
0

> <PUBCHEM_COMPONENT_COUNT>
1

> <PUBCHEM_CACTVS_TAUTO_COUNT>
-1

> <PUBCHEM_COORDINATE_TYPE>
1
5
255

> <PUBCHEM_BONDANNOTATIONS>
10  30  5
19  20  8
20  22  8
21  23  8
22  23  8
24  25  8
25  26  8
25  27  8
27  28  8
28  29  8
11  3  6
6  19  8
6  21  8
7  24  8
7  8  8
8  26  8
9  26  8
9  29  8

$$$$
