24905177
  -OEChem-03202500002D

 46 48  0     0  0  0  0  0  0999 V2000
    3.9639    2.8717    0.0000 O   0  0  0  0  0  0  0  0  0  0  0  0
    7.2566    1.7955    0.0000 O   0  0  0  0  0  0  0  0  0  0  0  0
    5.9209    3.2841    0.0000 O   0  0  0  0  0  0  0  0  0  0  0  0
    4.6783   -2.1274    0.0000 N   0  0  0  0  0  0  0  0  0  0  0  0
    5.2619   -1.3227    0.0000 N   0  0  0  0  0  0  0  0  0  0  0  0
    2.8660   -2.3227    0.0000 N   0  0  0  0  0  0  0  0  0  0  0  0
    2.0000   -0.8227    0.0000 N   0  0  0  0  0  0  0  0  0  0  0  0
    2.8660    0.6773    0.0000 N   0  0  0  0  0  0  0  0  0  0  0  0
    4.9889   -3.0779    0.0000 C   0  0  0  0  0  0  0  0  0  0  0  0
    3.7320   -0.8227    0.0000 C   0  0  0  0  0  0  0  0  0  0  0  0
    3.7320   -1.8227    0.0000 C   0  0  0  0  0  0  0  0  0  0  0  0
    4.6783   -0.5179    0.0000 C   0  0  0  0  0  0  0  0  0  0  0  0
    4.9889    0.4326    0.0000 C   0  0  0  0  0  0  0  0  0  0  0  0
    5.9674   -3.2841    0.0000 C   0  0  0  0  0  0  0  0  0  0  0  0
    4.3211   -3.8222    0.0000 C   0  0  0  0  0  0  0  0  0  0  0  0
    2.8660   -0.3227    0.0000 C   0  0  0  0  0  0  0  0  0  0  0  0
    5.9674    0.6388    0.0000 C   0  0  0  0  0  0  0  0  0  0  0  0
    4.3211    1.1769    0.0000 C   0  0  0  0  0  0  0  0  0  0  0  0
    4.6318    2.1274    0.0000 C   0  0  0  0  0  0  0  0  0  0  0  0
    6.2781    1.5893    0.0000 C   0  0  0  0  0  0  0  0  0  0  0  0
    5.6103    2.3336    0.0000 C   0  0  0  0  0  0  0  0  0  0  0  0
    2.0000   -1.8227    0.0000 C   0  0  0  0  0  0  0  0  0  0  0  0
    4.2746    3.8222    0.0000 C   0  0  0  0  0  0  0  0  0  0  0  0
    7.9244    1.0512    0.0000 C   0  0  0  0  0  0  0  0  0  0  0  0
    6.8994    3.4904    0.0000 C   0  0  0  0  0  0  0  0  0  0  0  0
    5.1815   -3.6672    0.0000 H   0  0  0  0  0  0  0  0  0  0  0  0
    5.8396   -3.8908    0.0000 H   0  0  0  0  0  0  0  0  0  0  0  0
    6.5741   -3.4120    0.0000 H   0  0  0  0  0  0  0  0  0  0  0  0
    6.0953   -2.6775    0.0000 H   0  0  0  0  0  0  0  0  0  0  0  0
    3.8596   -3.4082    0.0000 H   0  0  0  0  0  0  0  0  0  0  0  0
    3.9070   -4.2837    0.0000 H   0  0  0  0  0  0  0  0  0  0  0  0
    4.7826   -4.2363    0.0000 H   0  0  0  0  0  0  0  0  0  0  0  0
    6.3815    0.1773    0.0000 H   0  0  0  0  0  0  0  0  0  0  0  0
    3.7144    1.0490    0.0000 H   0  0  0  0  0  0  0  0  0  0  0  0
    1.4631   -2.1327    0.0000 H   0  0  0  0  0  0  0  0  0  0  0  0
    2.3291    0.9873    0.0000 H   0  0  0  0  0  0  0  0  0  0  0  0
    3.4030    0.9873    0.0000 H   0  0  0  0  0  0  0  0  0  0  0  0
    4.8639    3.6296    0.0000 H   0  0  0  0  0  0  0  0  0  0  0  0
    4.4672    4.4116    0.0000 H   0  0  0  0  0  0  0  0  0  0  0  0
    3.6852    4.0148    0.0000 H   0  0  0  0  0  0  0  0  0  0  0  0
    7.4630    0.6372    0.0000 H   0  0  0  0  0  0  0  0  0  0  0  0
    8.3385    0.5898    0.0000 H   0  0  0  0  0  0  0  0  0  0  0  0
    8.3859    1.4653    0.0000 H   0  0  0  0  0  0  0  0  0  0  0  0
    7.0273    2.8837    0.0000 H   0  0  0  0  0  0  0  0  0  0  0  0
    7.5061    3.6182    0.0000 H   0  0  0  0  0  0  0  0  0  0  0  0
    6.7716    4.0970    0.0000 H   0  0  0  0  0  0  0  0  0  0  0  0
  1 19  1  0  0  0  0
  1 23  1  0  0  0  0
  2 20  1  0  0  0  0
  2 24  1  0  0  0  0
  3 21  1  0  0  0  0
  3 25  1  0  0  0  0
  4  5  1  0  0  0  0
  4  9  1  0  0  0  0
  4 11  1  0  0  0  0
  5 12  2  0  0  0  0
  6 11  2  0  0  0  0
  6 22  1  0  0  0  0
  7 16  1  0  0  0  0
  7 22  2  0  0  0  0
  8 16  1  0  0  0  0
  8 36  1  0  0  0  0
  8 37  1  0  0  0  0
  9 14  1  0  0  0  0
  9 15  1  0  0  0  0
  9 26  1  0  0  0  0
 10 11  1  0  0  0  0
 10 12  1  0  0  0  0
 10 16  2  0  0  0  0
 12 13  1  0  0  0  0
 13 17  2  0  0  0  0
 13 18  1  0  0  0  0
 14 27  1  0  0  0  0
 14 28  1  0  0  0  0
 14 29  1  0  0  0  0
 15 30  1  0  0  0  0
 15 31  1  0  0  0  0
 15 32  1  0  0  0  0
 17 20  1  0  0  0  0
 17 33  1  0  0  0  0
 18 19  2  0  0  0  0
 18 34  1  0  0  0  0
 19 21  1  0  0  0  0
 20 21  2  0  0  0  0
 22 35  1  0  0  0  0
 23 38  1  0  0  0  0
 23 39  1  0  0  0  0
 23 40  1  0  0  0  0
 24 41  1  0  0  0  0
 24 42  1  0  0  0  0
 24 43  1  0  0  0  0
 25 44  1  0  0  0  0
 25 45  1  0  0  0  0
 25 46  1  0  0  0  0
M  END
> <PUBCHEM_COMPOUND_CID>
24905177

> <PUBCHEM_COMPOUND_CANONICALIZED>
1

> <PUBCHEM_CACTVS_COMPLEXITY>
427

> <PUBCHEM_CACTVS_HBOND_ACCEPTOR>
7

> <PUBCHEM_CACTVS_HBOND_DONOR>
1

> <PUBCHEM_CACTVS_ROTATABLE_BOND>
5

> <PUBCHEM_CACTVS_SUBSKEYS>
AAADceB7sAAAAAAAAAAAAAAAAAAAAWAAAAA8QAAAAAAAAFgB/AAAHgAYAAAADCzBnwY3tt5IFACiAyZjZACSjCsxoKAV2CAuzJiNL6LE+duEtCptyBfK6Cew8P0OIAABCAAAQABAAAIQAACAAAAAAAAAAA==

> <PUBCHEM_IUPAC_OPENEYE_NAME>
1-isopropyl-3-(3,4,5-trimethoxyphenyl)pyrazolo[3,4-d]pyrimidin-4-amine

> <PUBCHEM_IUPAC_CAS_NAME>
1-propan-2-yl-3-(3,4,5-trimethoxyphenyl)-4-pyrazolo[3,4-d]pyrimidinamine

> <PUBCHEM_IUPAC_NAME_MARKUP>
1-propan-2-yl-3-(3,4,5-trimethoxyphenyl)pyrazolo[3,4-d]pyrimidin-4-amine

> <PUBCHEM_IUPAC_NAME>
1-propan-2-yl-3-(3,4,5-trimethoxyphenyl)pyrazolo[3,4-d]pyrimidin-4-amine

> <PUBCHEM_IUPAC_SYSTEMATIC_NAME>
1-propan-2-yl-3-(3,4,5-trimethoxyphenyl)pyrazolo[3,4-d]pyrimidin-4-amine

> <PUBCHEM_IUPAC_TRADITIONAL_NAME>
[1-isopropyl-3-(3,4,5-trimethoxyphenyl)pyrazolo[3,4-d]pyrimidin-4-yl]amine

> <PUBCHEM_IUPAC_INCHI>
InChI=1S/C17H21N5O3/c1-9(2)22-17-13(16(18)19-8-20-17)14(21-22)10-6-11(23-3)15(25-5)12(7-10)24-4/h6-9H,1-5H3,(H2,18,19,20)

> <PUBCHEM_IUPAC_INCHIKEY>
LCQAIZAFSOZWRC-UHFFFAOYSA-N

> <PUBCHEM_XLOGP3_AA>
2.1

> <PUBCHEM_EXACT_MASS>
343.16443955

> <PUBCHEM_MOLECULAR_FORMULA>
C17H21N5O3

> <PUBCHEM_MOLECULAR_WEIGHT>
343.4

> <PUBCHEM_SMILES>
CC(C)N1C2=NC=NC(=C2C(=N1)C3=CC(=C(C(=C3)OC)OC)OC)N

> <PUBCHEM_OPENEYE_CAN_SMILES>
CC(C)N1C2=NC=NC(=C2C(=N1)C3=CC(=C(C(=C3)OC)OC)OC)N

> <PUBCHEM_OPENEYE_ISO_SMILES>
CC(C)N1C2=NC=NC(=C2C(=N1)C3=CC(=C(C(=C3)OC)OC)OC)N

> <PUBCHEM_CACTVS_TPSA>
97.3

> <PUBCHEM_MONOISOTOPIC_WEIGHT>
343.16443955

> <PUBCHEM_TOTAL_CHARGE>
0

> <PUBCHEM_HEAVY_ATOM_COUNT>
25

> <PUBCHEM_ATOM_DEF_STEREO_COUNT>
0

> <PUBCHEM_ATOM_UDEF_STEREO_COUNT>
0

> <PUBCHEM_BOND_DEF_STEREO_COUNT>
0

> <PUBCHEM_BOND_UDEF_STEREO_COUNT>
0

> <PUBCHEM_ISOTOPIC_ATOM_COUNT>
0

> <PUBCHEM_COMPONENT_COUNT>
1

> <PUBCHEM_CACTVS_TAUTO_COUNT>
-1

> <PUBCHEM_COORDINATE_TYPE>
1
5
255

> <PUBCHEM_BONDANNOTATIONS>
10  11  8
10  12  8
10  16  8
13  17  8
13  18  8
17  20  8
18  19  8
19  21  8
20  21  8
4  11  8
4  5  8
5  12  8
6  11  8
6  22  8
7  16  8
7  22  8

$$$$
