18521941
  -OEChem-03202502582D

 51 54  0     0  0  0  0  0  0999 V2000
    2.0000   -2.6975    0.0000 Cl  0  0  0  0  0  0  0  0  0  0  0  0
    5.4641   -2.6975    0.0000 Cl  0  0  0  0  0  0  0  0  0  0  0  0
    5.5116   -1.6042    0.0000 S   0  0  0  0  0  0  0  0  0  0  0  0
    2.8660   -1.1975    0.0000 O   0  0  0  0  0  0  0  0  0  0  0  0
    9.5264    2.2704    0.0000 N   0  0  0  0  0  0  0  0  0  0  0  0
   10.7020    3.8885    0.0000 N   0  0  0  0  0  0  0  0  0  0  0  0
    7.1753   -0.9656    0.0000 N   0  0  0  0  0  0  0  0  0  0  0  0
    5.6808    0.0049    0.0000 N   0  0  0  0  0  0  0  0  0  0  0  0
    3.9595    0.4662    0.0000 N   0  0  0  0  0  0  0  0  0  0  0  0
   10.5209    2.1659    0.0000 C   0  0  0  0  0  0  0  0  0  0  0  0
    9.1197    3.1840    0.0000 C   0  0  0  0  0  0  0  0  0  0  0  0
   11.1087    2.9749    0.0000 C   0  0  0  0  0  0  0  0  0  0  0  0
    9.7075    3.9930    0.0000 C   0  0  0  0  0  0  0  0  0  0  0  0
    8.9386    1.4614    0.0000 C   0  0  0  0  0  0  0  0  0  0  0  0
   11.2898    4.6975    0.0000 C   0  0  0  0  0  0  0  0  0  0  0  0
    9.3454    0.5479    0.0000 C   0  0  0  0  0  0  0  0  0  0  0  0
    7.9441    1.5660    0.0000 C   0  0  0  0  0  0  0  0  0  0  0  0
    8.7576   -0.2611    0.0000 C   0  0  0  0  0  0  0  0  0  0  0  0
    7.3563    0.7569    0.0000 C   0  0  0  0  0  0  0  0  0  0  0  0
    7.7631   -0.1566    0.0000 C   0  0  0  0  0  0  0  0  0  0  0  0
    6.1808   -0.8611    0.0000 C   0  0  0  0  0  0  0  0  0  0  0  0
    4.5981   -1.1975    0.0000 C   0  0  0  0  0  0  0  0  0  0  0  0
    4.7026   -0.2030    0.0000 C   0  0  0  0  0  0  0  0  0  0  0  0
    3.7320   -1.6975    0.0000 C   0  0  0  0  0  0  0  0  0  0  0  0
    3.7320   -2.6975    0.0000 C   0  0  0  0  0  0  0  0  0  0  0  0
    2.8660   -3.1975    0.0000 C   0  0  0  0  0  0  0  0  0  0  0  0
    4.5981   -3.1975    0.0000 C   0  0  0  0  0  0  0  0  0  0  0  0
    2.8660   -4.1975    0.0000 C   0  0  0  0  0  0  0  0  0  0  0  0
    4.5981   -4.1975    0.0000 C   0  0  0  0  0  0  0  0  0  0  0  0
    3.7320   -4.6975    0.0000 C   0  0  0  0  0  0  0  0  0  0  0  0
   10.3500    1.5699    0.0000 H   0  0  0  0  0  0  0  0  0  0  0  0
   11.0782    1.8941    0.0000 H   0  0  0  0  0  0  0  0  0  0  0  0
    8.6890    3.6300    0.0000 H   0  0  0  0  0  0  0  0  0  0  0  0
    8.6057    2.8373    0.0000 H   0  0  0  0  0  0  0  0  0  0  0  0
   11.5394    2.5290    0.0000 H   0  0  0  0  0  0  0  0  0  0  0  0
   11.6227    3.3216    0.0000 H   0  0  0  0  0  0  0  0  0  0  0  0
    9.8784    4.5890    0.0000 H   0  0  0  0  0  0  0  0  0  0  0  0
    9.1502    4.2648    0.0000 H   0  0  0  0  0  0  0  0  0  0  0  0
   11.7914    4.3331    0.0000 H   0  0  0  0  0  0  0  0  0  0  0  0
   11.6542    5.1991    0.0000 H   0  0  0  0  0  0  0  0  0  0  0  0
   10.7882    5.0619    0.0000 H   0  0  0  0  0  0  0  0  0  0  0  0
    9.9620    0.4831    0.0000 H   0  0  0  0  0  0  0  0  0  0  0  0
    7.6919    2.1324    0.0000 H   0  0  0  0  0  0  0  0  0  0  0  0
    9.0098   -0.8275    0.0000 H   0  0  0  0  0  0  0  0  0  0  0  0
    6.7397    0.8218    0.0000 H   0  0  0  0  0  0  0  0  0  0  0  0
    7.4274   -1.5320    0.0000 H   0  0  0  0  0  0  0  0  0  0  0  0
    4.0884    1.0726    0.0000 H   0  0  0  0  0  0  0  0  0  0  0  0
    3.3698    0.2746    0.0000 H   0  0  0  0  0  0  0  0  0  0  0  0
    2.3291   -4.5075    0.0000 H   0  0  0  0  0  0  0  0  0  0  0  0
    5.1350   -4.5075    0.0000 H   0  0  0  0  0  0  0  0  0  0  0  0
    3.7320   -5.3175    0.0000 H   0  0  0  0  0  0  0  0  0  0  0  0
  1 26  1  0  0  0  0
  2 27  1  0  0  0  0
  3 21  1  0  0  0  0
  3 22  1  0  0  0  0
  4 24  2  0  0  0  0
  5 10  1  0  0  0  0
  5 11  1  0  0  0  0
  5 14  1  0  0  0  0
  6 12  1  0  0  0  0
  6 13  1  0  0  0  0
  6 15  1  0  0  0  0
  7 20  1  0  0  0  0
  7 21  1  0  0  0  0
  7 46  1  0  0  0  0
  8 21  2  0  0  0  0
  8 23  1  0  0  0  0
  9 23  1  0  0  0  0
  9 47  1  0  0  0  0
  9 48  1  0  0  0  0
 10 12  1  0  0  0  0
 10 31  1  0  0  0  0
 10 32  1  0  0  0  0
 11 13  1  0  0  0  0
 11 33  1  0  0  0  0
 11 34  1  0  0  0  0
 12 35  1  0  0  0  0
 12 36  1  0  0  0  0
 13 37  1  0  0  0  0
 13 38  1  0  0  0  0
 14 16  2  0  0  0  0
 14 17  1  0  0  0  0
 15 39  1  0  0  0  0
 15 40  1  0  0  0  0
 15 41  1  0  0  0  0
 16 18  1  0  0  0  0
 16 42  1  0  0  0  0
 17 19  2  0  0  0  0
 17 43  1  0  0  0  0
 18 20  2  0  0  0  0
 18 44  1  0  0  0  0
 19 20  1  0  0  0  0
 19 45  1  0  0  0  0
 22 23  2  0  0  0  0
 22 24  1  0  0  0  0
 24 25  1  0  0  0  0
 25 26  2  0  0  0  0
 25 27  1  0  0  0  0
 26 28  1  0  0  0  0
 27 29  2  0  0  0  0
 28 30  2  0  0  0  0
 28 49  1  0  0  0  0
 29 30  1  0  0  0  0
 29 50  1  0  0  0  0
 30 51  1  0  0  0  0
M  END
> <PUBCHEM_COMPOUND_CID>
18521941

> <PUBCHEM_COMPOUND_CANONICALIZED>
1

> <PUBCHEM_CACTVS_COMPLEXITY>
576

> <PUBCHEM_CACTVS_HBOND_ACCEPTOR>
7

> <PUBCHEM_CACTVS_HBOND_DONOR>
2

> <PUBCHEM_CACTVS_ROTATABLE_BOND>
5

> <PUBCHEM_CACTVS_SUBSKEYS>
AAADceB7oABGAAAAAAAAAAAAAAAAAWAAAAA8YIAAAAAAAAAB0AAAHgYQAAAADA7B2iQz8ZPIEAisAqZyZACC8KllDzkJmAUoZsiIYDrhn5GUIYhokALIzWcYiICOAACAAACBAAAAAQAAAQIAAAAAAAAAAA==

> <PUBCHEM_IUPAC_OPENEYE_NAME>
[4-amino-2-[4-(4-methylpiperazin-1-yl)anilino]thiazol-5-yl]-(2,6-dichlorophenyl)methanone

> <PUBCHEM_IUPAC_CAS_NAME>
[4-amino-2-[4-(4-methyl-1-piperazinyl)anilino]-5-thiazolyl]-(2,6-dichlorophenyl)methanone

> <PUBCHEM_IUPAC_NAME_MARKUP>
[4-amino-2-[4-(4-methylpiperazin-1-yl)anilino]-1,3-thiazol-5-yl]-(2,6-dichlorophenyl)methanone

> <PUBCHEM_IUPAC_NAME>
[4-amino-2-[4-(4-methylpiperazin-1-yl)anilino]-1,3-thiazol-5-yl]-(2,6-dichlorophenyl)methanone

> <PUBCHEM_IUPAC_SYSTEMATIC_NAME>
[4-azanyl-2-[[4-(4-methylpiperazin-1-yl)phenyl]amino]-1,3-thiazol-5-yl]-[2,6-bis(chloranyl)phenyl]methanone

> <PUBCHEM_IUPAC_TRADITIONAL_NAME>
[4-amino-2-[4-(4-methylpiperazino)anilino]thiazol-5-yl]-(2,6-dichlorophenyl)methanone

> <PUBCHEM_IUPAC_INCHI>
InChI=1S/C21H21Cl2N5OS/c1-27-9-11-28(12-10-27)14-7-5-13(6-8-14)25-21-26-20(24)19(30-21)18(29)17-15(22)3-2-4-16(17)23/h2-8H,9-12,24H2,1H3,(H,25,26)

> <PUBCHEM_IUPAC_INCHIKEY>
QDMKHRICOLBXIP-UHFFFAOYSA-N

> <PUBCHEM_XLOGP3_AA>
5.9

> <PUBCHEM_EXACT_MASS>
461.0843869

> <PUBCHEM_MOLECULAR_FORMULA>
C21H21Cl2N5OS

> <PUBCHEM_MOLECULAR_WEIGHT>
462.4

> <PUBCHEM_SMILES>
CN1CCN(CC1)C2=CC=C(C=C2)NC3=NC(=C(S3)C(=O)C4=C(C=CC=C4Cl)Cl)N

> <PUBCHEM_OPENEYE_CAN_SMILES>
CN1CCN(CC1)C2=CC=C(C=C2)NC3=NC(=C(S3)C(=O)C4=C(C=CC=C4Cl)Cl)N

> <PUBCHEM_OPENEYE_ISO_SMILES>
CN1CCN(CC1)C2=CC=C(C=C2)NC3=NC(=C(S3)C(=O)C4=C(C=CC=C4Cl)Cl)N

> <PUBCHEM_CACTVS_TPSA>
103

> <PUBCHEM_MONOISOTOPIC_WEIGHT>
461.0843869

> <PUBCHEM_TOTAL_CHARGE>
0

> <PUBCHEM_HEAVY_ATOM_COUNT>
30

> <PUBCHEM_ATOM_DEF_STEREO_COUNT>
0

> <PUBCHEM_ATOM_UDEF_STEREO_COUNT>
0

> <PUBCHEM_BOND_DEF_STEREO_COUNT>
0

> <PUBCHEM_BOND_UDEF_STEREO_COUNT>
0

> <PUBCHEM_ISOTOPIC_ATOM_COUNT>
0

> <PUBCHEM_COMPONENT_COUNT>
1

> <PUBCHEM_CACTVS_TAUTO_COUNT>
-1

> <PUBCHEM_COORDINATE_TYPE>
1
5
255

> <PUBCHEM_BONDANNOTATIONS>
14  16  8
14  17  8
16  18  8
17  19  8
18  20  8
19  20  8
22  23  8
25  26  8
25  27  8
26  28  8
27  29  8
28  30  8
29  30  8
3  21  8
3  22  8
8  21  8
8  23  8

$$$$
