49831034
  -OEChem-03202501542D

 41 44  0     0  0  0  0  0  0999 V2000
   11.6171    3.5836    0.0000 Cl  0  0  0  0  0  0  0  0  0  0  0  0
   12.3664    0.1240    0.0000 Cl  0  0  0  0  0  0  0  0  0  0  0  0
    6.9356   -0.8259    0.0000 O   0  0  0  0  0  0  0  0  0  0  0  0
    2.0000   -2.4506    0.0000 O   0  5  0  0  0  0  0  0  0  0  0  0
    3.2916   -3.6046    0.0000 O   0  0  0  0  0  0  0  0  0  0  0  0
    7.2892    0.8697    0.0000 N   0  0  0  0  0  0  0  0  0  0  0  0
    9.4947    2.9846    0.0000 N   0  0  0  0  0  0  0  0  0  0  0  0
    5.6440    0.3281    0.0000 N   0  0  0  0  0  0  0  0  0  0  0  0
    2.9789   -2.6547    0.0000 N   0  3  0  0  0  0  0  0  0  0  0  0
    8.9947    1.4458    0.0000 C   0  0  0  0  0  0  0  0  0  0  0  0
    8.6857    2.3968    0.0000 C   0  0  0  0  0  0  0  0  0  0  0  0
    7.6702    2.6291    0.0000 C   0  0  0  0  0  0  0  0  0  0  0  0
    8.3097    0.6610    0.0000 C   0  0  0  0  0  0  0  0  0  0  0  0
    6.9673    1.8604    0.0000 C   0  0  0  0  0  0  0  0  0  0  0  0
    9.9947    1.4458    0.0000 C   0  0  0  0  0  0  0  0  0  0  0  0
   10.3037    2.3968    0.0000 C   0  0  0  0  0  0  0  0  0  0  0  0
   10.6796    0.6610    0.0000 C   0  0  0  0  0  0  0  0  0  0  0  0
    6.6229    0.1240    0.0000 C   0  0  0  0  0  0  0  0  0  0  0  0
   11.3191    2.6291    0.0000 C   0  0  0  0  0  0  0  0  0  0  0  0
   11.7001    0.8697    0.0000 C   0  0  0  0  0  0  0  0  0  0  0  0
   12.0220    1.8604    0.0000 C   0  0  0  0  0  0  0  0  0  0  0  0
    4.9777   -0.4176    0.0000 C   0  0  0  0  0  0  0  0  0  0  0  0
    3.9988   -0.2134    0.0000 C   0  0  0  0  0  0  0  0  0  0  0  0
    5.2904   -1.3674    0.0000 C   0  0  0  0  0  0  0  0  0  0  0  0
    3.3325   -0.9592    0.0000 C   0  0  0  0  0  0  0  0  0  0  0  0
    4.6241   -2.1132    0.0000 C   0  0  0  0  0  0  0  0  0  0  0  0
    3.6452   -1.9090    0.0000 C   0  0  0  0  0  0  0  0  0  0  0  0
    7.9099    3.2009    0.0000 H   0  0  0  0  0  0  0  0  0  0  0  0
    7.1479    2.9630    0.0000 H   0  0  0  0  0  0  0  0  0  0  0  0
    8.0834    0.0838    0.0000 H   0  0  0  0  0  0  0  0  0  0  0  0
    8.8397    0.3392    0.0000 H   0  0  0  0  0  0  0  0  0  0  0  0
    6.5881    2.3509    0.0000 H   0  0  0  0  0  0  0  0  0  0  0  0
    6.4191    1.5707    0.0000 H   0  0  0  0  0  0  0  0  0  0  0  0
    9.4947    3.6046    0.0000 H   0  0  0  0  0  0  0  0  0  0  0  0
   10.4812    0.0736    0.0000 H   0  0  0  0  0  0  0  0  0  0  0  0
   12.6280    1.9916    0.0000 H   0  0  0  0  0  0  0  0  0  0  0  0
    5.4501    0.9171    0.0000 H   0  0  0  0  0  0  0  0  0  0  0  0
    3.8049    0.3755    0.0000 H   0  0  0  0  0  0  0  0  0  0  0  0
    5.8974   -1.4940    0.0000 H   0  0  0  0  0  0  0  0  0  0  0  0
    2.7256   -0.8326    0.0000 H   0  0  0  0  0  0  0  0  0  0  0  0
    4.8180   -2.7021    0.0000 H   0  0  0  0  0  0  0  0  0  0  0  0
  1 19  1  0  0  0  0
  2 20  1  0  0  0  0
  3 18  2  0  0  0  0
  4  9  1  0  0  0  0
  5  9  2  0  0  0  0
  6 13  1  0  0  0  0
  6 14  1  0  0  0  0
  6 18  1  0  0  0  0
  7 11  1  0  0  0  0
  7 16  1  0  0  0  0
  7 34  1  0  0  0  0
  8 18  1  0  0  0  0
  8 22  1  0  0  0  0
  8 37  1  0  0  0  0
  9 27  1  0  0  0  0
 10 11  2  0  0  0  0
 10 13  1  0  0  0  0
 10 15  1  0  0  0  0
 11 12  1  0  0  0  0
 12 14  1  0  0  0  0
 12 28  1  0  0  0  0
 12 29  1  0  0  0  0
 13 30  1  0  0  0  0
 13 31  1  0  0  0  0
 14 32  1  0  0  0  0
 14 33  1  0  0  0  0
 15 16  2  0  0  0  0
 15 17  1  0  0  0  0
 16 19  1  0  0  0  0
 17 20  2  0  0  0  0
 17 35  1  0  0  0  0
 19 21  2  0  0  0  0
 20 21  1  0  0  0  0
 21 36  1  0  0  0  0
 22 23  2  0  0  0  0
 22 24  1  0  0  0  0
 23 25  1  0  0  0  0
 23 38  1  0  0  0  0
 24 26  2  0  0  0  0
 24 39  1  0  0  0  0
 25 27  2  0  0  0  0
 25 40  1  0  0  0  0
 26 27  1  0  0  0  0
 26 41  1  0  0  0  0
M  CHG  2   4  -1   9   1
M  END
> <PUBCHEM_COMPOUND_CID>
49831034

> <PUBCHEM_COMPOUND_CANONICALIZED>
1

> <PUBCHEM_CACTVS_COMPLEXITY>
581

> <PUBCHEM_CACTVS_HBOND_ACCEPTOR>
3

> <PUBCHEM_CACTVS_HBOND_DONOR>
2

> <PUBCHEM_CACTVS_ROTATABLE_BOND>
1

> <PUBCHEM_CACTVS_SUBSKEYS>
AAADccB7sAAGAAAAAAAAAAAAAAAAAWAAAAA8YIAAAAAAAFgB9AAAHgIUAAAADArBHiQxwPPZ0ACpAyRiVwCCgCAhByAomSA4ZpqIIOLB05HEIAholgLIyCcQgMAOgADAIACCABAAAYBAAQQAIAAAAAAAAA==

> <PUBCHEM_IUPAC_OPENEYE_NAME>
6,8-dichloro-N-(4-nitrophenyl)-1,3,4,5-tetrahydropyrido[4,3-b]indole-2-carboxamide

> <PUBCHEM_IUPAC_CAS_NAME>
6,8-dichloro-N-(4-nitrophenyl)-1,3,4,5-tetrahydropyrido[4,3-b]indole-2-carboxamide

> <PUBCHEM_IUPAC_NAME_MARKUP>
6,8-dichloro-<I>N</I>-(4-nitrophenyl)-1,3,4,5-tetrahydropyrido[4,3-b]indole-2-carboxamide

> <PUBCHEM_IUPAC_NAME>
6,8-dichloro-N-(4-nitrophenyl)-1,3,4,5-tetrahydropyrido[4,3-b]indole-2-carboxamide

> <PUBCHEM_IUPAC_SYSTEMATIC_NAME>
6,8-bis(chloranyl)-N-(4-nitrophenyl)-1,3,4,5-tetrahydropyrido[4,3-b]indole-2-carboxamide

> <PUBCHEM_IUPAC_TRADITIONAL_NAME>
6,8-dichloro-N-(4-nitrophenyl)-1,3,4,5-tetrahydropyrid[4,3-b]indole-2-carboxamide

> <PUBCHEM_IUPAC_INCHI>
InChI=1S/C18H14Cl2N4O3/c19-10-7-13-14-9-23(6-5-16(14)22-17(13)15(20)8-10)18(25)21-11-1-3-12(4-2-11)24(26)27/h1-4,7-8,22H,5-6,9H2,(H,21,25)

> <PUBCHEM_IUPAC_INCHIKEY>
GKQJYCBMMCLAOZ-UHFFFAOYSA-N

> <PUBCHEM_XLOGP3_AA>
3.9

> <PUBCHEM_EXACT_MASS>
404.0442957

> <PUBCHEM_MOLECULAR_FORMULA>
C18H14Cl2N4O3

> <PUBCHEM_MOLECULAR_WEIGHT>
405.2

> <PUBCHEM_SMILES>
C1CN(CC2=C1NC3=C2C=C(C=C3Cl)Cl)C(=O)NC4=CC=C(C=C4)[N+](=O)[O-]

> <PUBCHEM_OPENEYE_CAN_SMILES>
C1CN(CC2=C1NC3=C2C=C(C=C3Cl)Cl)C(=O)NC4=CC=C(C=C4)[N+](=O)[O-]

> <PUBCHEM_OPENEYE_ISO_SMILES>
C1CN(CC2=C1NC3=C2C=C(C=C3Cl)Cl)C(=O)NC4=CC=C(C=C4)[N+](=O)[O-]

> <PUBCHEM_CACTVS_TPSA>
94

> <PUBCHEM_MONOISOTOPIC_WEIGHT>
404.0442957

> <PUBCHEM_TOTAL_CHARGE>
0

> <PUBCHEM_HEAVY_ATOM_COUNT>
27

> <PUBCHEM_ATOM_DEF_STEREO_COUNT>
0

> <PUBCHEM_ATOM_UDEF_STEREO_COUNT>
0

> <PUBCHEM_BOND_DEF_STEREO_COUNT>
0

> <PUBCHEM_BOND_UDEF_STEREO_COUNT>
0

> <PUBCHEM_ISOTOPIC_ATOM_COUNT>
0

> <PUBCHEM_COMPONENT_COUNT>
1

> <PUBCHEM_CACTVS_TAUTO_COUNT>
-1

> <PUBCHEM_COORDINATE_TYPE>
1
5
255

> <PUBCHEM_BONDANNOTATIONS>
10  11  8
10  15  8
15  16  8
15  17  8
16  19  8
17  20  8
19  21  8
20  21  8
22  23  8
22  24  8
23  25  8
24  26  8
25  27  8
26  27  8
7  11  8
7  16  8

$$$$
