10871128
  -OEChem-03202505332D

 38 42  0     0  0  0  0  0  0999 V2000
    3.4026   -1.0854    0.0000 O   0  0  0  0  0  0  0  0  0  0  0  0
    6.7523   -2.1674    0.0000 O   0  0  0  0  0  0  0  0  0  0  0  0
    4.6783    0.6769    0.0000 N   0  0  0  0  0  0  0  0  0  0  0  0
    6.7485    0.0082    0.0000 N   0  0  0  0  0  0  0  0  0  0  0  0
    4.9917   -1.8916    0.0000 N   0  0  0  0  0  0  0  0  0  0  0  0
    4.9889   -0.2736    0.0000 C   0  0  0  0  0  0  0  0  0  0  0  0
    5.9405   -0.5810    0.0000 C   0  0  0  0  0  0  0  0  0  0  0  0
    3.7320    0.9816    0.0000 C   0  0  0  0  0  0  0  0  0  0  0  0
    7.6942   -0.2982    0.0000 C   0  0  0  0  0  0  0  0  0  0  0  0
    3.7320    1.9816    0.0000 C   0  0  0  0  0  0  0  0  0  0  0  0
    8.2792    0.5129    0.0000 C   0  0  0  0  0  0  0  0  0  0  0  0
    4.4026   -1.0836    0.0000 C   0  0  0  0  0  0  0  0  0  0  0  0
    5.9422   -1.5810    0.0000 C   0  0  0  0  0  0  0  0  0  0  0  0
    5.2619    1.4816    0.0000 C   0  0  0  0  0  0  0  0  0  0  0  0
    6.7459    1.0023    0.0000 C   0  0  0  0  0  0  0  0  0  0  0  0
    4.6783    2.2864    0.0000 C   0  0  0  0  0  0  0  0  0  0  0  0
    7.6900    1.3136    0.0000 C   0  0  0  0  0  0  0  0  0  0  0  0
    2.8660    0.4816    0.0000 C   0  0  0  0  0  0  0  0  0  0  0  0
    8.1041   -1.2103    0.0000 C   0  0  0  0  0  0  0  0  0  0  0  0
    2.8660    2.4816    0.0000 C   0  0  0  0  0  0  0  0  0  0  0  0
    9.2741    0.4118    0.0000 C   0  0  0  0  0  0  0  0  0  0  0  0
    2.0000    0.9816    0.0000 C   0  0  0  0  0  0  0  0  0  0  0  0
    9.0990   -1.3114    0.0000 C   0  0  0  0  0  0  0  0  0  0  0  0
    2.0000    1.9816    0.0000 C   0  0  0  0  0  0  0  0  0  0  0  0
    9.6840   -0.5003    0.0000 C   0  0  0  0  0  0  0  0  0  0  0  0
    5.8819    1.4816    0.0000 H   0  0  0  0  0  0  0  0  0  0  0  0
    6.2431    1.3650    0.0000 H   0  0  0  0  0  0  0  0  0  0  0  0
    4.8709    2.8757    0.0000 H   0  0  0  0  0  0  0  0  0  0  0  0
    7.8786    1.9042    0.0000 H   0  0  0  0  0  0  0  0  0  0  0  0
    4.8012   -2.4816    0.0000 H   0  0  0  0  0  0  0  0  0  0  0  0
    2.8660   -0.1384    0.0000 H   0  0  0  0  0  0  0  0  0  0  0  0
    7.7414   -1.7132    0.0000 H   0  0  0  0  0  0  0  0  0  0  0  0
    2.8660    3.1016    0.0000 H   0  0  0  0  0  0  0  0  0  0  0  0
    9.6368    0.9146    0.0000 H   0  0  0  0  0  0  0  0  0  0  0  0
    1.4631    0.6716    0.0000 H   0  0  0  0  0  0  0  0  0  0  0  0
    9.3531   -1.8769    0.0000 H   0  0  0  0  0  0  0  0  0  0  0  0
    1.4631    2.2916    0.0000 H   0  0  0  0  0  0  0  0  0  0  0  0
   10.3008   -0.5630    0.0000 H   0  0  0  0  0  0  0  0  0  0  0  0
  1 12  2  0  0  0  0
  2 13  2  0  0  0  0
  3  6  1  0  0  0  0
  3  8  1  0  0  0  0
  3 14  1  0  0  0  0
  4  7  1  0  0  0  0
  4  9  1  0  0  0  0
  4 15  1  0  0  0  0
  5 12  1  0  0  0  0
  5 13  1  0  0  0  0
  5 30  1  0  0  0  0
  6  7  2  0  0  0  0
  6 12  1  0  0  0  0
  7 13  1  0  0  0  0
  8 10  1  0  0  0  0
  8 18  2  0  0  0  0
  9 11  1  0  0  0  0
  9 19  2  0  0  0  0
 10 16  1  0  0  0  0
 10 20  2  0  0  0  0
 11 17  1  0  0  0  0
 11 21  2  0  0  0  0
 14 16  2  0  0  0  0
 14 26  1  0  0  0  0
 15 17  2  0  0  0  0
 15 27  1  0  0  0  0
 16 28  1  0  0  0  0
 17 29  1  0  0  0  0
 18 22  1  0  0  0  0
 18 31  1  0  0  0  0
 19 23  1  0  0  0  0
 19 32  1  0  0  0  0
 20 24  1  0  0  0  0
 20 33  1  0  0  0  0
 21 25  1  0  0  0  0
 21 34  1  0  0  0  0
 22 24  2  0  0  0  0
 22 35  1  0  0  0  0
 23 25  2  0  0  0  0
 23 36  1  0  0  0  0
 24 37  1  0  0  0  0
 25 38  1  0  0  0  0
M  END
> <PUBCHEM_COMPOUND_CID>
10871128

> <PUBCHEM_COMPOUND_CANONICALIZED>
1

> <PUBCHEM_CACTVS_COMPLEXITY>
576

> <PUBCHEM_CACTVS_HBOND_ACCEPTOR>
2

> <PUBCHEM_CACTVS_HBOND_DONOR>
1

> <PUBCHEM_CACTVS_ROTATABLE_BOND>
2

> <PUBCHEM_CACTVS_SUBSKEYS>
AAADccB7MAAAAAAAAAAAAAAAAAAAAWLEAAAwYAAAAAAAAFgB/gAAHgAQAAAADAjBngQ8wPPMEACoAzV3VACCgCAxAiAI2CC4ZNgIYOLAkbGUIAhghCDIyUcQgIAOAAAAAAACAAAAAAAAAAQAAAAAAAAAAA==

> <PUBCHEM_IUPAC_OPENEYE_NAME>
3,4-di(indol-1-yl)pyrrole-2,5-dione

> <PUBCHEM_IUPAC_CAS_NAME>
3,4-bis(1-indolyl)pyrrole-2,5-dione

> <PUBCHEM_IUPAC_NAME_MARKUP>
3,4-di(indol-1-yl)pyrrole-2,5-dione

> <PUBCHEM_IUPAC_NAME>
3,4-di(indol-1-yl)pyrrole-2,5-dione

> <PUBCHEM_IUPAC_SYSTEMATIC_NAME>
3,4-di(indol-1-yl)pyrrole-2,5-dione

> <PUBCHEM_IUPAC_TRADITIONAL_NAME>
3,4-di(indol-1-yl)-3-pyrroline-2,5-quinone

> <PUBCHEM_IUPAC_INCHI>
InChI=1S/C20H13N3O2/c24-19-17(22-11-9-13-5-1-3-7-15(13)22)18(20(25)21-19)23-12-10-14-6-2-4-8-16(14)23/h1-12H,(H,21,24,25)

> <PUBCHEM_IUPAC_INCHIKEY>
CDXNZQYZADSNCP-UHFFFAOYSA-N

> <PUBCHEM_XLOGP3_AA>
3.2

> <PUBCHEM_EXACT_MASS>
327.100776666

> <PUBCHEM_MOLECULAR_FORMULA>
C20H13N3O2

> <PUBCHEM_MOLECULAR_WEIGHT>
327.3

> <PUBCHEM_SMILES>
C1=CC=C2C(=C1)C=CN2C3=C(C(=O)NC3=O)N4C=CC5=CC=CC=C54

> <PUBCHEM_OPENEYE_CAN_SMILES>
C1=CC=C2C(=C1)C=CN2C3=C(C(=O)NC3=O)N4C=CC5=CC=CC=C54

> <PUBCHEM_OPENEYE_ISO_SMILES>
C1=CC=C2C(=C1)C=CN2C3=C(C(=O)NC3=O)N4C=CC5=CC=CC=C54

> <PUBCHEM_CACTVS_TPSA>
56

> <PUBCHEM_MONOISOTOPIC_WEIGHT>
327.100776666

> <PUBCHEM_TOTAL_CHARGE>
0

> <PUBCHEM_HEAVY_ATOM_COUNT>
25

> <PUBCHEM_ATOM_DEF_STEREO_COUNT>
0

> <PUBCHEM_ATOM_UDEF_STEREO_COUNT>
0

> <PUBCHEM_BOND_DEF_STEREO_COUNT>
0

> <PUBCHEM_BOND_UDEF_STEREO_COUNT>
0

> <PUBCHEM_ISOTOPIC_ATOM_COUNT>
0

> <PUBCHEM_COMPONENT_COUNT>
1

> <PUBCHEM_CACTVS_TAUTO_COUNT>
-1

> <PUBCHEM_COORDINATE_TYPE>
1
5
255

> <PUBCHEM_BONDANNOTATIONS>
10  16  8
10  20  8
11  17  8
11  21  8
14  16  8
15  17  8
18  22  8
19  23  8
20  24  8
21  25  8
22  24  8
23  25  8
3  14  8
3  8  8
4  15  8
4  9  8
8  10  8
8  18  8
9  11  8
9  19  8

$$$$
