46905122
  -OEChem-03192523242D

 96104  0     1  0  0  0  0  0999 V2000
   10.6287   -4.3161    0.0000 O   0  0  0  0  0  0  0  0  0  0  0  0
    7.5699   -1.4856    0.0000 O   0  0  0  0  0  0  0  0  0  0  0  0
    7.0843   -1.3830    0.0000 O   0  0  0  0  0  0  0  0  0  0  0  0
    8.5764   -4.2937    0.0000 O   0  0  0  0  0  0  0  0  0  0  0  0
   10.0944    0.2534    0.0000 O   0  0  0  0  0  0  0  0  0  0  0  0
    8.2960    1.3359    0.0000 O   0  0  0  0  0  0  0  0  0  0  0  0
    8.7496   -6.0266    0.0000 O   0  0  0  0  0  0  0  0  0  0  0  0
    9.6832   -5.6682    0.0000 O   0  0  0  0  0  0  0  0  0  0  0  0
    9.7500   -1.4599    0.0000 O   0  0  0  0  0  0  0  0  0  0  0  0
    4.6912    0.3699    0.0000 O   0  0  0  0  0  0  0  0  0  0  0  0
    7.1712   -5.5895    0.0000 O   0  0  0  0  0  0  0  0  0  0  0  0
    6.6394   -2.9847    0.0000 O   0  0  0  0  0  0  0  0  0  0  0  0
   12.7607   -4.0718    0.0000 O   0  0  0  0  0  0  0  0  0  0  0  0
   11.7335   -0.7591    0.0000 O   0  0  0  0  0  0  0  0  0  0  0  0
   13.5774   -2.1069    0.0000 O   0  0  0  0  0  0  0  0  0  0  0  0
    8.9032    2.8018    0.0000 O   0  0  0  0  0  0  0  0  0  0  0  0
   11.3595   -1.7657    0.0000 O   0  0  0  0  0  0  0  0  0  0  0  0
    3.4323    1.3359    0.0000 O   0  0  0  0  0  0  0  0  0  0  0  0
    5.1680    4.6817    0.0000 O   0  0  0  0  0  0  0  0  0  0  0  0
    5.7272    4.8315    0.0000 O   0  0  0  0  0  0  0  0  0  0  0  0
    8.5259    5.4466    0.0000 O   0  0  0  0  0  0  0  0  0  0  0  0
    6.5474    5.9767    0.0000 O   0  0  0  0  0  0  0  0  0  0  0  0
    3.8851    5.2633    0.0000 O   0  0  0  0  0  0  0  0  0  0  0  0
    2.4367    3.8150    0.0000 O   0  0  0  0  0  0  0  0  0  0  0  0
   11.0093    2.3973    0.0000 O   0  0  0  0  0  0  0  0  0  0  0  0
   13.8204    0.3731    0.0000 O   0  0  0  0  0  0  0  0  0  0  0  0
   12.9992    2.1967    0.0000 O   0  0  0  0  0  0  0  0  0  0  0  0
    9.3718   -3.1287    0.0000 C   0  0  3  0  0  0  0  0  0  0  0  0
    9.5697   -4.1782    0.0000 C   0  0  3  0  0  0  0  0  0  0  0  0
   10.3157   -2.6156    0.0000 C   0  0  0  0  0  0  0  0  0  0  0  0
    7.3301   -0.3372    0.0000 C   0  0  1  0  0  0  0  0  0  0  0  0
    8.9060   -5.0389    0.0000 C   0  0  0  0  0  0  0  0  0  0  0  0
    8.0372    0.3699    0.0000 C   0  0  1  0  0  0  0  0  0  0  0  0
    8.3006   -3.0461    0.0000 C   0  0  0  0  0  0  0  0  0  0  0  0
    9.0830    0.6158    0.0000 C   0  0  2  0  0  0  0  0  0  0  0  0
    6.3642   -0.5960    0.0000 C   0  0  1  0  0  0  0  0  0  0  0  0
   11.0888   -3.3524    0.0000 C   0  0  0  0  0  0  0  0  0  0  0  0
    8.9385   -0.8756    0.0000 C   0  0  2  0  0  0  0  0  0  0  0  0
   10.8288   -1.6718    0.0000 C   0  0  0  0  0  0  0  0  0  0  0  0
    7.8369   -4.8433    0.0000 C   0  0  0  0  0  0  0  0  0  0  0  0
    7.5210   -3.8034    0.0000 C   0  0  0  0  0  0  0  0  0  0  0  0
    7.4466   -2.3944    0.0000 C   0  0  0  0  0  0  0  0  0  0  0  0
    5.3982   -0.3372    0.0000 C   0  0  0  0  0  0  0  0  0  0  0  0
   12.1720   -3.2634    0.0000 C   0  0  0  0  0  0  0  0  0  0  0  0
   10.7462   -0.6006    0.0000 C   0  0  0  0  0  0  0  0  0  0  0  0
   11.8882   -1.4292    0.0000 C   0  0  0  0  0  0  0  0  0  0  0  0
   12.5892   -2.2598    0.0000 C   0  0  0  0  0  0  0  0  0  0  0  0
    8.0372    2.3018    0.0000 C   0  0  0  0  0  0  0  0  0  0  0  0
   10.6618   -1.0493    0.0000 C   0  0  0  0  0  0  0  0  0  0  0  0
    7.3301    3.0089    0.0000 C   0  0  0  0  0  0  0  0  0  0  0  0
    4.4323    1.3359    0.0000 C   0  0  0  0  0  0  0  0  0  0  0  0
    6.3642    3.2677    0.0000 C   0  0  0  0  0  0  0  0  0  0  0  0
    4.6912    2.3018    0.0000 C   0  0  0  0  0  0  0  0  0  0  0  0
    5.3982    3.0089    0.0000 C   0  0  0  0  0  0  0  0  0  0  0  0
   11.2461   -0.2378    0.0000 C   0  0  0  0  0  0  0  0  0  0  0  0
    8.0779    3.7340    0.0000 C   0  0  0  0  0  0  0  0  0  0  0  0
    6.0791    4.2696    0.0000 C   0  0  0  0  0  0  0  0  0  0  0  0
    5.1442    4.0191    0.0000 C   0  0  0  0  0  0  0  0  0  0  0  0
    3.6810    2.5558    0.0000 C   0  0  0  0  0  0  0  0  0  0  0  0
    7.8161    4.7422    0.0000 C   0  0  0  0  0  0  0  0  0  0  0  0
    6.8100    5.0118    0.0000 C   0  0  0  0  0  0  0  0  0  0  0  0
   12.2411   -0.3381    0.0000 C   0  0  0  0  0  0  0  0  0  0  0  0
   10.8355    0.6740    0.0000 C   0  0  0  0  0  0  0  0  0  0  0  0
    4.1402    4.2964    0.0000 C   0  0  0  0  0  0  0  0  0  0  0  0
    3.4036    3.5599    0.0000 C   0  0  0  0  0  0  0  0  0  0  0  0
   11.4199    1.4855    0.0000 C   0  0  0  0  0  0  0  0  0  0  0  0
   12.8254    0.4734    0.0000 C   0  0  0  0  0  0  0  0  0  0  0  0
   12.4148    1.3852    0.0000 C   0  0  0  0  0  0  0  0  0  0  0  0
    9.2422   -2.5224    0.0000 H   0  0  0  0  0  0  0  0  0  0  0  0
    6.7291   -0.9382    0.0000 H   0  0  0  0  0  0  0  0  0  0  0  0
    8.6382    0.9710    0.0000 H   0  0  0  0  0  0  0  0  0  0  0  0
    9.6424    1.2558    0.0000 H   0  0  0  0  0  0  0  0  0  0  0  0
    5.9954   -1.3618    0.0000 H   0  0  0  0  0  0  0  0  0  0  0  0
    9.5038   -0.6210    0.0000 H   0  0  0  0  0  0  0  0  0  0  0  0
    6.9207   -3.6485    0.0000 H   0  0  0  0  0  0  0  0  0  0  0  0
    4.8363   -0.5992    0.0000 H   0  0  0  0  0  0  0  0  0  0  0  0
    5.7082    0.1998    0.0000 H   0  0  0  0  0  0  0  0  0  0  0  0
    8.2065   -3.7960    0.0000 H   0  0  0  0  0  0  0  0  0  0  0  0
   12.0846   -0.8411    0.0000 H   0  0  0  0  0  0  0  0  0  0  0  0
    9.2314   -6.4168    0.0000 H   0  0  0  0  0  0  0  0  0  0  0  0
   10.2620   -5.4461    0.0000 H   0  0  0  0  0  0  0  0  0  0  0  0
   13.3772   -4.0063    0.0000 H   0  0  0  0  0  0  0  0  0  0  0  0
   13.8017   -1.5289    0.0000 H   0  0  0  0  0  0  0  0  0  0  0  0
    8.6749    3.5666    0.0000 H   0  0  0  0  0  0  0  0  0  0  0  0
    3.2477    2.1124    0.0000 H   0  0  0  0  0  0  0  0  0  0  0  0
   12.4957   -0.9035    0.0000 H   0  0  0  0  0  0  0  0  0  0  0  0
   10.2187    0.7362    0.0000 H   0  0  0  0  0  0  0  0  0  0  0  0
    4.8995    5.2405    0.0000 H   0  0  0  0  0  0  0  0  0  0  0  0
    5.6803    5.4498    0.0000 H   0  0  0  0  0  0  0  0  0  0  0  0
    9.1242    5.2838    0.0000 H   0  0  0  0  0  0  0  0  0  0  0  0
    6.9841    6.4168    0.0000 H   0  0  0  0  0  0  0  0  0  0  0  0
    3.2868    5.4261    0.0000 H   0  0  0  0  0  0  0  0  0  0  0  0
    2.0000    3.3749    0.0000 H   0  0  0  0  0  0  0  0  0  0  0  0
   11.3716    2.9004    0.0000 H   0  0  0  0  0  0  0  0  0  0  0  0
   14.1827    0.8762    0.0000 H   0  0  0  0  0  0  0  0  0  0  0  0
   13.6161    2.1345    0.0000 H   0  0  0  0  0  0  0  0  0  0  0  0
  1 29  1  0  0  0  0
  1 37  1  0  0  0  0
  2 36  1  0  0  0  0
  2 38  1  0  0  0  0
  3 31  1  0  0  0  0
  3 42  1  0  0  0  0
  4 29  1  0  0  0  0
  4 78  1  0  0  0  0
  5 35  1  0  0  0  0
  5 45  1  0  0  0  0
  6 33  1  0  0  0  0
  6 48  1  0  0  0  0
  7 32  1  0  0  0  0
  7 80  1  0  0  0  0
  8 32  1  0  0  0  0
  8 81  1  0  0  0  0
 38  9  1  1  0  0  0
  9 49  1  0  0  0  0
 10 43  1  0  0  0  0
 10 51  1  0  0  0  0
 11 40  2  0  0  0  0
 12 42  2  0  0  0  0
 13 44  1  0  0  0  0
 13 82  1  0  0  0  0
 14 45  2  0  0  0  0
 15 47  1  0  0  0  0
 15 83  1  0  0  0  0
 16 48  2  0  0  0  0
 17 49  2  0  0  0  0
 18 51  2  0  0  0  0
 19 57  1  0  0  0  0
 19 88  1  0  0  0  0
 20 58  1  0  0  0  0
 20 89  1  0  0  0  0
 21 60  1  0  0  0  0
 21 90  1  0  0  0  0
 22 61  1  0  0  0  0
 22 91  1  0  0  0  0
 23 64  1  0  0  0  0
 23 92  1  0  0  0  0
 24 65  1  0  0  0  0
 24 93  1  0  0  0  0
 25 66  1  0  0  0  0
 25 94  1  0  0  0  0
 26 67  1  0  0  0  0
 26 95  1  0  0  0  0
 27 68  1  0  0  0  0
 27 96  1  0  0  0  0
 28 29  1  0  0  0  0
 28 30  1  0  0  0  0
 28 34  1  0  0  0  0
 28 69  1  0  0  0  0
 29 32  1  0  0  0  0
 30 37  2  0  0  0  0
 30 39  1  0  0  0  0
 31 33  1  0  0  0  0
 31 36  1  0  0  0  0
 31 70  1  1  0  0  0
 32 40  1  0  0  0  0
 33 35  1  0  0  0  0
 33 71  1  1  0  0  0
 34 41  2  0  0  0  0
 34 42  1  0  0  0  0
 35 38  1  0  0  0  0
 35 72  1  6  0  0  0
 36 43  1  0  0  0  0
 36 73  1  1  0  0  0
 37 44  1  0  0  0  0
 38 74  1  0  0  0  0
 39 45  1  0  0  0  0
 39 46  2  0  0  0  0
 40 41  1  0  0  0  0
 41 75  1  0  0  0  0
 43 76  1  0  0  0  0
 43 77  1  0  0  0  0
 44 47  2  0  0  0  0
 46 47  1  0  0  0  0
 46 79  1  0  0  0  0
 48 50  1  0  0  0  0
 49 55  1  0  0  0  0
 50 52  1  0  0  0  0
 50 56  2  0  0  0  0
 51 53  1  0  0  0  0
 52 54  1  0  0  0  0
 52 57  2  0  0  0  0
 53 54  1  0  0  0  0
 53 59  2  0  0  0  0
 54 58  2  0  0  0  0
 55 62  2  0  0  0  0
 55 63  1  0  0  0  0
 56 60  1  0  0  0  0
 56 84  1  0  0  0  0
 57 61  1  0  0  0  0
 58 64  1  0  0  0  0
 59 65  1  0  0  0  0
 59 85  1  0  0  0  0
 60 61  2  0  0  0  0
 62 67  1  0  0  0  0
 62 86  1  0  0  0  0
 63 66  2  0  0  0  0
 63 87  1  0  0  0  0
 64 65  2  0  0  0  0
 66 68  1  0  0  0  0
 67 68  2  0  0  0  0
M  END
> <PUBCHEM_COMPOUND_CID>
46905122

> <PUBCHEM_COMPOUND_CANONICALIZED>
1

> <PUBCHEM_CACTVS_COMPLEXITY>
2080

> <PUBCHEM_CACTVS_HBOND_ACCEPTOR>
27

> <PUBCHEM_CACTVS_HBOND_DONOR>
14

> <PUBCHEM_CACTVS_ROTATABLE_BOND>
3

> <PUBCHEM_CACTVS_SUBSKEYS>
AAADceB8PgAAAAAAAAAAAAAAAAAAASAAAAA0YMGCAAAAAEgBVAAAGgAACAAADRSwmAMwDoAABgCIAqDSCAICCAAkIAAAiAFGiMgdJzaGNRqieSOl4BUPuYfK7PzOoAABCAAYQABAAAIQADCAAAAAAAAAAA==

> <PUBCHEM_IUPAC_OPENEYE_NAME>
[(8R,9S,27R,29R,30R)-1,2,2,14,15,16,19,20,21,35,36-undecahydroxy-3,6,11,24,32-pentaoxo-7,10,25,28,31,40-hexaoxaoctacyclo[35.2.1.05,39.08,27.09,30.012,17.018,23.033,38]tetraconta-4,12,14,16,18,20,22,33,35,37-decaen-29-yl] 3,4,5-trihydroxybenzoate

> <PUBCHEM_IUPAC_CAS_NAME>
3,4,5-trihydroxybenzoic acid [(8R,9S,27R,29R,30R)-1,2,2,14,15,16,19,20,21,35,36-undecahydroxy-3,6,11,24,32-pentaoxo-7,10,25,28,31,40-hexaoxaoctacyclo[35.2.1.05,39.08,27.09,30.012,17.018,23.033,38]tetraconta-4,12,14,16,18,20,22,33,35,37-decaen-29-yl] ester

> <PUBCHEM_IUPAC_NAME_MARKUP>
[(8<I>R</I>,9<I>S</I>,27<I>R</I>,29<I>R</I>,30<I>R</I>)-1,2,2,14,15,16,19,20,21,35,36-undecahydroxy-3,6,11,24,32-pentaoxo-7,10,25,28,31,40-hexaoxaoctacyclo[35.2.1.0<SUP>5,39</SUP>.0<SUP>8,27</SUP>.0<SUP>9,30</SUP>.0<SUP>12,17</SUP>.0<SUP>18,23</SUP>.0<SUP>33,38</SUP>]tetraconta-4,12,14,16,18,20,22,33,35,37-decaen-29-yl] 3,4,5-trihydroxybenzoate

> <PUBCHEM_IUPAC_NAME>
[(8R,9S,27R,29R,30R)-1,2,2,14,15,16,19,20,21,35,36-undecahydroxy-3,6,11,24,32-pentaoxo-7,10,25,28,31,40-hexaoxaoctacyclo[35.2.1.05,39.08,27.09,30.012,17.018,23.033,38]tetraconta-4,12,14,16,18,20,22,33,35,37-decaen-29-yl] 3,4,5-trihydroxybenzoate

> <PUBCHEM_IUPAC_SYSTEMATIC_NAME>
[(8R,9S,27R,29R,30R)-1,2,2,14,15,16,19,20,21,35,36-undecakis(oxidanyl)-3,6,11,24,32-pentakis(oxidanylidene)-7,10,25,28,31,40-hexaoxaoctacyclo[35.2.1.05,39.08,27.09,30.012,17.018,23.033,38]tetraconta-4,12,14,16,18,20,22,33,35,37-decaen-29-yl] 3,4,5-tris(oxidanyl)benzoate

> <PUBCHEM_IUPAC_TRADITIONAL_NAME>
3,4,5-trihydroxybenzoic acid [(8R,9S,27R,29R,30R)-1,2,2,14,15,16,19,20,21,35,36-undecahydroxy-3,6,11,24,32-pentaketo-7,10,25,28,31,40-hexaoxaoctacyclo[35.2.1.05,39.08,27.09,30.012,17.018,23.033,38]tetraconta-4,12,14,16,18,20,22,33,35,37-decaen-29-yl] ester

> <PUBCHEM_IUPAC_INCHI>
InChI=1S/C41H28O27/c42-13-1-8(2-14(43)24(13)48)34(54)67-39-33-32-30(64-38(58)12-6-19(47)40(59,60)41(61)23(12)22-11(37(57)66-33)5-17(46)27(51)31(22)68-41)18(63-39)7-62-35(55)9-3-15(44)25(49)28(52)20(9)21-10(36(56)65-32)4-16(45)26(50)29(21)53/h1-6,18,23,30,32-33,39,42-46,48-53,59-61H,7H2/t18-,23?,30-,32+,33-,39-,41?/m1/s1

> <PUBCHEM_IUPAC_INCHIKEY>
WTKZYPVTAXZSEM-ZCLDYZHWSA-N

> <PUBCHEM_XLOGP3_AA>
-0.6

> <PUBCHEM_EXACT_MASS>
952.08179561

> <PUBCHEM_MOLECULAR_FORMULA>
C41H28O27

> <PUBCHEM_MOLECULAR_WEIGHT>
952.6

> <PUBCHEM_SMILES>
C1[C@@H]2[C@@H]3[C@@H]([C@H]([C@H](O2)OC(=O)C4=CC(=C(C(=C4)O)O)O)OC(=O)C5=CC(=C(C6=C5C7C(=CC(=O)C(C7(O6)O)(O)O)C(=O)O3)O)O)OC(=O)C8=CC(=C(C(=C8C9=C(C(=C(C=C9C(=O)O1)O)O)O)O)O)O

> <PUBCHEM_OPENEYE_CAN_SMILES>
C1C2C3C(C(C(O2)OC(=O)C4=CC(=C(C(=C4)O)O)O)OC(=O)C5=CC(=C(C6=C5C7C(=CC(=O)C(C7(O6)O)(O)O)C(=O)O3)O)O)OC(=O)C8=CC(=C(C(=C8C9=C(C(=C(C=C9C(=O)O1)O)O)O)O)O)O

> <PUBCHEM_OPENEYE_ISO_SMILES>
C1[C@@H]2[C@@H]3[C@@H]([C@H]([C@H](O2)OC(=O)C4=CC(=C(C(=C4)O)O)O)OC(=O)C5=CC(=C(C6=C5C7C(=CC(=O)C(C7(O6)O)(O)O)C(=O)O3)O)O)OC(=O)C8=CC(=C(C(=C8C9=C(C(=C(C=C9C(=O)O1)O)O)O)O)O)O

> <PUBCHEM_CACTVS_TPSA>
450

> <PUBCHEM_MONOISOTOPIC_WEIGHT>
952.08179561

> <PUBCHEM_TOTAL_CHARGE>
0

> <PUBCHEM_HEAVY_ATOM_COUNT>
68

> <PUBCHEM_ATOM_DEF_STEREO_COUNT>
5

> <PUBCHEM_ATOM_UDEF_STEREO_COUNT>
2

> <PUBCHEM_BOND_DEF_STEREO_COUNT>
0

> <PUBCHEM_BOND_UDEF_STEREO_COUNT>
0

> <PUBCHEM_ISOTOPIC_ATOM_COUNT>
0

> <PUBCHEM_COMPONENT_COUNT>
1

> <PUBCHEM_CACTVS_TAUTO_COUNT>
-1

> <PUBCHEM_COORDINATE_TYPE>
1
5
255

> <PUBCHEM_BONDANNOTATIONS>
28  30  3
30  37  8
30  39  8
31  70  5
33  71  5
35  72  6
36  73  5
37  44  8
39  46  8
29  4  3
44  47  8
46  47  8
50  52  8
50  56  8
52  57  8
53  54  8
53  59  8
54  58  8
55  62  8
55  63  8
56  60  8
57  61  8
58  64  8
59  65  8
60  61  8
62  67  8
63  66  8
64  65  8
66  68  8
67  68  8
38  9  5

$$$$
