9820089
  -OEChem-03202501452D

 30 32  0     0  0  0  0  0  0999 V2000
    3.7817    0.8446    0.0000 Cl  0  0  0  0  0  0  0  0  0  0  0  0
    2.0000   -2.2142    0.0000 Cl  0  0  0  0  0  0  0  0  0  0  0  0
    3.7981    2.8100    0.0000 Cl  0  0  0  0  0  0  0  0  0  0  0  0
    7.2622   -0.1900    0.0000 O   0  0  0  0  0  0  0  0  0  0  0  0
    7.2622    0.8100    0.0000 O   0  0  0  0  0  0  0  0  0  0  0  0
    7.2622   -2.1900    0.0000 O   0  0  0  0  0  0  0  0  0  0  0  0
    5.5301   -2.1900    0.0000 N   0  0  0  0  0  0  0  0  0  0  0  0
    5.5301   -0.1900    0.0000 C   0  0  0  0  0  0  0  0  0  0  0  0
    4.6641   -0.6900    0.0000 C   0  0  0  0  0  0  0  0  0  0  0  0
    4.6641   -1.6900    0.0000 C   0  0  0  0  0  0  0  0  0  0  0  0
    5.5301    0.8100    0.0000 C   0  0  0  0  0  0  0  0  0  0  0  0
    6.3961   -0.6900    0.0000 C   0  0  0  0  0  0  0  0  0  0  0  0
    3.7702   -0.1553    0.0000 C   0  0  0  0  0  0  0  0  0  0  0  0
    6.3961   -1.6900    0.0000 C   0  0  0  0  0  0  0  0  0  0  0  0
    3.7702   -2.2247    0.0000 C   0  0  0  0  0  0  0  0  0  0  0  0
    6.3961    1.3100    0.0000 C   0  0  0  0  0  0  0  0  0  0  0  0
    4.6641    1.3100    0.0000 C   0  0  0  0  0  0  0  0  0  0  0  0
    2.8641   -0.6692    0.0000 C   0  0  0  0  0  0  0  0  0  0  0  0
    2.8641   -1.7108    0.0000 C   0  0  0  0  0  0  0  0  0  0  0  0
    6.3961    2.3100    0.0000 C   0  0  0  0  0  0  0  0  0  0  0  0
    4.6641    2.3100    0.0000 C   0  0  0  0  0  0  0  0  0  0  0  0
    5.5301    2.8100    0.0000 C   0  0  0  0  0  0  0  0  0  0  0  0
    5.5301   -2.8100    0.0000 H   0  0  0  0  0  0  0  0  0  0  0  0
    3.7773   -2.8446    0.0000 H   0  0  0  0  0  0  0  0  0  0  0  0
    4.1272    1.0000    0.0000 H   0  0  0  0  0  0  0  0  0  0  0  0
    2.3284   -0.3571    0.0000 H   0  0  0  0  0  0  0  0  0  0  0  0
    6.9331    2.6200    0.0000 H   0  0  0  0  0  0  0  0  0  0  0  0
    5.5301    3.4300    0.0000 H   0  0  0  0  0  0  0  0  0  0  0  0
    7.7991   -0.5000    0.0000 H   0  0  0  0  0  0  0  0  0  0  0  0
    7.7991    1.1200    0.0000 H   0  0  0  0  0  0  0  0  0  0  0  0
  1 13  1  0  0  0  0
  2 19  1  0  0  0  0
  3 21  1  0  0  0  0
  4 12  1  0  0  0  0
  4 29  1  0  0  0  0
  5 16  1  0  0  0  0
  5 30  1  0  0  0  0
  6 14  2  0  0  0  0
  7 10  1  0  0  0  0
  7 14  1  0  0  0  0
  7 23  1  0  0  0  0
  8  9  1  0  0  0  0
  8 11  1  0  0  0  0
  8 12  2  0  0  0  0
  9 10  2  0  0  0  0
  9 13  1  0  0  0  0
 10 15  1  0  0  0  0
 11 16  2  0  0  0  0
 11 17  1  0  0  0  0
 12 14  1  0  0  0  0
 13 18  2  0  0  0  0
 15 19  2  0  0  0  0
 15 24  1  0  0  0  0
 16 20  1  0  0  0  0
 17 21  2  0  0  0  0
 17 25  1  0  0  0  0
 18 19  1  0  0  0  0
 18 26  1  0  0  0  0
 20 22  2  0  0  0  0
 20 27  1  0  0  0  0
 21 22  1  0  0  0  0
 22 28  1  0  0  0  0
M  END
> <PUBCHEM_COMPOUND_CID>
9820089

> <PUBCHEM_COMPOUND_CANONICALIZED>
1

> <PUBCHEM_CACTVS_COMPLEXITY>
498

> <PUBCHEM_CACTVS_HBOND_ACCEPTOR>
3

> <PUBCHEM_CACTVS_HBOND_DONOR>
3

> <PUBCHEM_CACTVS_ROTATABLE_BOND>
1

> <PUBCHEM_CACTVS_SUBSKEYS>
AAADccByMAAGAAAAAAAAAAAAAAAAAAAAAAAwYIAAAAAAAACBQAAAHgIQCAAADA6BmCAwxoLAAgCIAiVSUAKCAAAhJwAIiABGbsgKJiLDk5OEcAhk1BHY2QeQ0OMOBCAAIAKLAAAIQABABRYAAAAAAAAAAA==

> <PUBCHEM_IUPAC_OPENEYE_NAME>
5,7-dichloro-4-(5-chloro-2-hydroxy-phenyl)-3-hydroxy-1H-quinolin-2-one

> <PUBCHEM_IUPAC_CAS_NAME>
5,7-dichloro-4-(5-chloro-2-hydroxyphenyl)-3-hydroxy-1H-quinolin-2-one

> <PUBCHEM_IUPAC_NAME_MARKUP>
5,7-dichloro-4-(5-chloro-2-hydroxyphenyl)-3-hydroxy-1<I>H</I>-quinolin-2-one

> <PUBCHEM_IUPAC_NAME>
5,7-dichloro-4-(5-chloro-2-hydroxyphenyl)-3-hydroxy-1H-quinolin-2-one

> <PUBCHEM_IUPAC_SYSTEMATIC_NAME>
5,7-bis(chloranyl)-4-(5-chloranyl-2-oxidanyl-phenyl)-3-oxidanyl-1H-quinolin-2-one

> <PUBCHEM_IUPAC_TRADITIONAL_NAME>
5,7-dichloro-4-(5-chloro-2-hydroxy-phenyl)-3-hydroxy-carbostyril

> <PUBCHEM_IUPAC_INCHI>
InChI=1S/C15H8Cl3NO3/c16-6-1-2-11(20)8(3-6)12-13-9(18)4-7(17)5-10(13)19-15(22)14(12)21/h1-5,20-21H,(H,19,22)

> <PUBCHEM_IUPAC_INCHIKEY>
UUYUVYXSHUTRGO-UHFFFAOYSA-N

> <PUBCHEM_XLOGP3_AA>
3.9

> <PUBCHEM_EXACT_MASS>
354.956976

> <PUBCHEM_MOLECULAR_FORMULA>
C15H8Cl3NO3

> <PUBCHEM_MOLECULAR_WEIGHT>
356.6

> <PUBCHEM_SMILES>
C1=CC(=C(C=C1Cl)C2=C(C(=O)NC3=C2C(=CC(=C3)Cl)Cl)O)O

> <PUBCHEM_OPENEYE_CAN_SMILES>
C1=CC(=C(C=C1Cl)C2=C(C(=O)NC3=C2C(=CC(=C3)Cl)Cl)O)O

> <PUBCHEM_OPENEYE_ISO_SMILES>
C1=CC(=C(C=C1Cl)C2=C(C(=O)NC3=C2C(=CC(=C3)Cl)Cl)O)O

> <PUBCHEM_CACTVS_TPSA>
69.6

> <PUBCHEM_MONOISOTOPIC_WEIGHT>
354.956976

> <PUBCHEM_TOTAL_CHARGE>
0

> <PUBCHEM_HEAVY_ATOM_COUNT>
22

> <PUBCHEM_ATOM_DEF_STEREO_COUNT>
0

> <PUBCHEM_ATOM_UDEF_STEREO_COUNT>
0

> <PUBCHEM_BOND_DEF_STEREO_COUNT>
0

> <PUBCHEM_BOND_UDEF_STEREO_COUNT>
0

> <PUBCHEM_ISOTOPIC_ATOM_COUNT>
0

> <PUBCHEM_COMPONENT_COUNT>
1

> <PUBCHEM_CACTVS_TAUTO_COUNT>
-1

> <PUBCHEM_COORDINATE_TYPE>
1
5
255

> <PUBCHEM_BONDANNOTATIONS>
10  15  8
11  16  8
11  17  8
12  14  8
13  18  8
15  19  8
16  20  8
17  21  8
18  19  8
20  22  8
21  22  8
7  10  8
7  14  8
8  12  8
8  9  8
9  10  8
9  13  8

$$$$
