10434923
  -OEChem-03202507272D

 68 71  0     0  0  0  0  0  0999 V2000
    6.7210    1.7552    0.0000 O   0  0  0  0  0  0  0  0  0  0  0  0
    6.7210   -1.7552    0.0000 O   0  0  0  0  0  0  0  0  0  0  0  0
    2.8660    5.0000    0.0000 N   0  0  0  0  0  0  0  0  0  0  0  0
    2.8660   -5.0000    0.0000 N   0  0  0  0  0  0  0  0  0  0  0  0
    2.8660    1.0000    0.0000 N   0  0  0  0  0  0  0  0  0  0  0  0
    2.8660   -1.0000    0.0000 N   0  0  0  0  0  0  0  0  0  0  0  0
    6.9939    0.0000    0.0000 N   0  0  0  0  0  0  0  0  0  0  0  0
    3.7320    0.5000    0.0000 C   0  0  0  0  0  0  0  0  0  0  0  0
    3.7320   -0.5000    0.0000 C   0  0  0  0  0  0  0  0  0  0  0  0
    5.4641    0.5000    0.0000 C   0  0  0  0  0  0  0  0  0  0  0  0
    5.4641   -0.5000    0.0000 C   0  0  0  0  0  0  0  0  0  0  0  0
    4.5981    1.0000    0.0000 C   0  0  0  0  0  0  0  0  0  0  0  0
    4.5981   -1.0000    0.0000 C   0  0  0  0  0  0  0  0  0  0  0  0
    2.8660    4.0000    0.0000 C   0  0  0  0  0  0  0  0  0  0  0  0
    2.8660   -4.0000    0.0000 C   0  0  0  0  0  0  0  0  0  0  0  0
    2.8660    2.0000    0.0000 C   0  0  0  0  0  0  0  0  0  0  0  0
    2.8660   -2.0000    0.0000 C   0  0  0  0  0  0  0  0  0  0  0  0
    2.0000    5.5000    0.0000 C   0  0  0  0  0  0  0  0  0  0  0  0
    3.7320    5.5000    0.0000 C   0  0  0  0  0  0  0  0  0  0  0  0
    2.0000   -5.5000    0.0000 C   0  0  0  0  0  0  0  0  0  0  0  0
    3.7320   -5.5000    0.0000 C   0  0  0  0  0  0  0  0  0  0  0  0
    6.4103    0.8047    0.0000 C   0  0  0  0  0  0  0  0  0  0  0  0
    6.4103   -0.8047    0.0000 C   0  0  0  0  0  0  0  0  0  0  0  0
    2.0000    3.5000    0.0000 C   0  0  0  0  0  0  0  0  0  0  0  0
    3.7320   -3.5000    0.0000 C   0  0  0  0  0  0  0  0  0  0  0  0
    3.7320    3.5000    0.0000 C   0  0  0  0  0  0  0  0  0  0  0  0
    2.0000   -3.5000    0.0000 C   0  0  0  0  0  0  0  0  0  0  0  0
    2.0000    2.5000    0.0000 C   0  0  0  0  0  0  0  0  0  0  0  0
    3.7320   -2.5000    0.0000 C   0  0  0  0  0  0  0  0  0  0  0  0
    3.7320    2.5000    0.0000 C   0  0  0  0  0  0  0  0  0  0  0  0
    2.0000   -2.5000    0.0000 C   0  0  0  0  0  0  0  0  0  0  0  0
    2.0000    6.5000    0.0000 C   0  0  0  0  0  0  0  0  0  0  0  0
    3.7320    6.5000    0.0000 C   0  0  0  0  0  0  0  0  0  0  0  0
    2.0000   -6.5000    0.0000 C   0  0  0  0  0  0  0  0  0  0  0  0
    3.7320   -6.5000    0.0000 C   0  0  0  0  0  0  0  0  0  0  0  0
    4.5981    1.6200    0.0000 H   0  0  0  0  0  0  0  0  0  0  0  0
    4.5981   -1.6200    0.0000 H   0  0  0  0  0  0  0  0  0  0  0  0
    2.3291    0.6900    0.0000 H   0  0  0  0  0  0  0  0  0  0  0  0
    2.3291   -0.6900    0.0000 H   0  0  0  0  0  0  0  0  0  0  0  0
    1.3894    5.6077    0.0000 H   0  0  0  0  0  0  0  0  0  0  0  0
    1.7880    4.9174    0.0000 H   0  0  0  0  0  0  0  0  0  0  0  0
    3.9441    4.9174    0.0000 H   0  0  0  0  0  0  0  0  0  0  0  0
    4.3426    5.6077    0.0000 H   0  0  0  0  0  0  0  0  0  0  0  0
    1.7880   -4.9174    0.0000 H   0  0  0  0  0  0  0  0  0  0  0  0
    1.3894   -5.6077    0.0000 H   0  0  0  0  0  0  0  0  0  0  0  0
    4.3426   -5.6077    0.0000 H   0  0  0  0  0  0  0  0  0  0  0  0
    3.9441   -4.9174    0.0000 H   0  0  0  0  0  0  0  0  0  0  0  0
    1.4631    3.8100    0.0000 H   0  0  0  0  0  0  0  0  0  0  0  0
    4.2690   -3.8100    0.0000 H   0  0  0  0  0  0  0  0  0  0  0  0
    4.2690    3.8100    0.0000 H   0  0  0  0  0  0  0  0  0  0  0  0
    1.4631   -3.8100    0.0000 H   0  0  0  0  0  0  0  0  0  0  0  0
    1.4631    2.1900    0.0000 H   0  0  0  0  0  0  0  0  0  0  0  0
    4.2690   -2.1900    0.0000 H   0  0  0  0  0  0  0  0  0  0  0  0
    4.2690    2.1900    0.0000 H   0  0  0  0  0  0  0  0  0  0  0  0
    1.4631   -2.1900    0.0000 H   0  0  0  0  0  0  0  0  0  0  0  0
    7.6139    0.0000    0.0000 H   0  0  0  0  0  0  0  0  0  0  0  0
    2.6200    6.5000    0.0000 H   0  0  0  0  0  0  0  0  0  0  0  0
    2.0000    7.1200    0.0000 H   0  0  0  0  0  0  0  0  0  0  0  0
    1.3800    6.5000    0.0000 H   0  0  0  0  0  0  0  0  0  0  0  0
    4.3520    6.5000    0.0000 H   0  0  0  0  0  0  0  0  0  0  0  0
    3.7320    7.1200    0.0000 H   0  0  0  0  0  0  0  0  0  0  0  0
    3.1120    6.5000    0.0000 H   0  0  0  0  0  0  0  0  0  0  0  0
    1.3800   -6.5000    0.0000 H   0  0  0  0  0  0  0  0  0  0  0  0
    2.0000   -7.1200    0.0000 H   0  0  0  0  0  0  0  0  0  0  0  0
    2.6200   -6.5000    0.0000 H   0  0  0  0  0  0  0  0  0  0  0  0
    3.1120   -6.5000    0.0000 H   0  0  0  0  0  0  0  0  0  0  0  0
    3.7320   -7.1200    0.0000 H   0  0  0  0  0  0  0  0  0  0  0  0
    4.3520   -6.5000    0.0000 H   0  0  0  0  0  0  0  0  0  0  0  0
  1 22  2  0  0  0  0
  2 23  2  0  0  0  0
  3 14  1  0  0  0  0
  3 18  1  0  0  0  0
  3 19  1  0  0  0  0
  4 15  1  0  0  0  0
  4 20  1  0  0  0  0
  4 21  1  0  0  0  0
  5  8  1  0  0  0  0
  5 16  1  0  0  0  0
  5 38  1  0  0  0  0
  6  9  1  0  0  0  0
  6 17  1  0  0  0  0
  6 39  1  0  0  0  0
  7 22  1  0  0  0  0
  7 23  1  0  0  0  0
  7 56  1  0  0  0  0
  8  9  2  0  0  0  0
  8 12  1  0  0  0  0
  9 13  1  0  0  0  0
 10 11  1  0  0  0  0
 10 12  2  0  0  0  0
 10 22  1  0  0  0  0
 11 13  2  0  0  0  0
 11 23  1  0  0  0  0
 12 36  1  0  0  0  0
 13 37  1  0  0  0  0
 14 24  2  0  0  0  0
 14 26  1  0  0  0  0
 15 25  2  0  0  0  0
 15 27  1  0  0  0  0
 16 28  2  0  0  0  0
 16 30  1  0  0  0  0
 17 29  2  0  0  0  0
 17 31  1  0  0  0  0
 18 32  1  0  0  0  0
 18 40  1  0  0  0  0
 18 41  1  0  0  0  0
 19 33  1  0  0  0  0
 19 42  1  0  0  0  0
 19 43  1  0  0  0  0
 20 34  1  0  0  0  0
 20 44  1  0  0  0  0
 20 45  1  0  0  0  0
 21 35  1  0  0  0  0
 21 46  1  0  0  0  0
 21 47  1  0  0  0  0
 24 28  1  0  0  0  0
 24 48  1  0  0  0  0
 25 29  1  0  0  0  0
 25 49  1  0  0  0  0
 26 30  2  0  0  0  0
 26 50  1  0  0  0  0
 27 31  2  0  0  0  0
 27 51  1  0  0  0  0
 28 52  1  0  0  0  0
 29 53  1  0  0  0  0
 30 54  1  0  0  0  0
 31 55  1  0  0  0  0
 32 57  1  0  0  0  0
 32 58  1  0  0  0  0
 32 59  1  0  0  0  0
 33 60  1  0  0  0  0
 33 61  1  0  0  0  0
 33 62  1  0  0  0  0
 34 63  1  0  0  0  0
 34 64  1  0  0  0  0
 34 65  1  0  0  0  0
 35 66  1  0  0  0  0
 35 67  1  0  0  0  0
 35 68  1  0  0  0  0
M  END
> <PUBCHEM_COMPOUND_CID>
10434923

> <PUBCHEM_COMPOUND_CANONICALIZED>
1

> <PUBCHEM_CACTVS_COMPLEXITY>
635

> <PUBCHEM_CACTVS_HBOND_ACCEPTOR>
6

> <PUBCHEM_CACTVS_HBOND_DONOR>
3

> <PUBCHEM_CACTVS_ROTATABLE_BOND>
10

> <PUBCHEM_CACTVS_SUBSKEYS>
AAADcfB7sAAAAAAAAAAAAAAAAAAAAWAAAAAwYMAAAAAAAFgBUAAAHgAQAAAADAjBmAQywIPAAACIAiVSUACCAAAlAgAIiAEIdMgIYHLAlZGUIQhglCDIyYcdiYCeiACAQAAQACAQAQCAACAAQAAAAAAAAA==

> <PUBCHEM_IUPAC_OPENEYE_NAME>
5,6-bis[4-(diethylamino)anilino]isoindoline-1,3-dione

> <PUBCHEM_IUPAC_CAS_NAME>
5,6-bis[4-(diethylamino)anilino]isoindole-1,3-dione

> <PUBCHEM_IUPAC_NAME_MARKUP>
5,6-bis[4-(diethylamino)anilino]isoindole-1,3-dione

> <PUBCHEM_IUPAC_NAME>
5,6-bis[4-(diethylamino)anilino]isoindole-1,3-dione

> <PUBCHEM_IUPAC_SYSTEMATIC_NAME>
5,6-bis[[4-(diethylamino)phenyl]amino]isoindole-1,3-dione

> <PUBCHEM_IUPAC_TRADITIONAL_NAME>
5,6-bis[4-(diethylamino)anilino]isoindoline-1,3-quinone

> <PUBCHEM_IUPAC_INCHI>
InChI=1S/C28H33N5O2/c1-5-32(6-2)21-13-9-19(10-14-21)29-25-17-23-24(28(35)31-27(23)34)18-26(25)30-20-11-15-22(16-12-20)33(7-3)8-4/h9-18,29-30H,5-8H2,1-4H3,(H,31,34,35)

> <PUBCHEM_IUPAC_INCHIKEY>
ZIUKVZLABPRJTA-UHFFFAOYSA-N

> <PUBCHEM_XLOGP3_AA>
5.5

> <PUBCHEM_EXACT_MASS>
471.26342531

> <PUBCHEM_MOLECULAR_FORMULA>
C28H33N5O2

> <PUBCHEM_MOLECULAR_WEIGHT>
471.6

> <PUBCHEM_SMILES>
CCN(CC)C1=CC=C(C=C1)NC2=C(C=C3C(=C2)C(=O)NC3=O)NC4=CC=C(C=C4)N(CC)CC

> <PUBCHEM_OPENEYE_CAN_SMILES>
CCN(CC)C1=CC=C(C=C1)NC2=C(C=C3C(=C2)C(=O)NC3=O)NC4=CC=C(C=C4)N(CC)CC

> <PUBCHEM_OPENEYE_ISO_SMILES>
CCN(CC)C1=CC=C(C=C1)NC2=C(C=C3C(=C2)C(=O)NC3=O)NC4=CC=C(C=C4)N(CC)CC

> <PUBCHEM_CACTVS_TPSA>
76.7

> <PUBCHEM_MONOISOTOPIC_WEIGHT>
471.26342531

> <PUBCHEM_TOTAL_CHARGE>
0

> <PUBCHEM_HEAVY_ATOM_COUNT>
35

> <PUBCHEM_ATOM_DEF_STEREO_COUNT>
0

> <PUBCHEM_ATOM_UDEF_STEREO_COUNT>
0

> <PUBCHEM_BOND_DEF_STEREO_COUNT>
0

> <PUBCHEM_BOND_UDEF_STEREO_COUNT>
0

> <PUBCHEM_ISOTOPIC_ATOM_COUNT>
0

> <PUBCHEM_COMPONENT_COUNT>
1

> <PUBCHEM_CACTVS_TAUTO_COUNT>
-1

> <PUBCHEM_COORDINATE_TYPE>
1
5
255

> <PUBCHEM_BONDANNOTATIONS>
10  11  8
10  12  8
11  13  8
14  24  8
14  26  8
15  25  8
15  27  8
16  28  8
16  30  8
17  29  8
17  31  8
24  28  8
25  29  8
26  30  8
27  31  8
8  12  8
8  9  8
9  13  8

$$$$
