23647573
  -OEChem-03202504382D

 54 58  0     1  0  0  0  0  0999 V2000
    8.3289   -0.5224    0.0000 O   0  0  0  0  0  0  0  0  0  0  0  0
    3.7899   -1.7203    0.0000 N   0  0  0  0  0  0  0  0  0  0  0  0
    6.5968   -1.5224    0.0000 N   0  0  0  0  0  0  0  0  0  0  0  0
   10.0610    1.4776    0.0000 N   0  0  0  0  0  0  0  0  0  0  0  0
   15.3251   -1.5432    0.0000 N   0  0  0  0  0  0  0  0  0  0  0  0
    5.7308   -0.0224    0.0000 C   0  0  0  0  0  0  0  0  0  0  0  0
    6.5968   -0.5224    0.0000 C   0  0  1  0  0  0  0  0  0  0  0  0
    4.8648   -0.5224    0.0000 C   0  0  0  0  0  0  0  0  0  0  0  0
    3.9570   -0.1173    0.0000 C   0  0  0  0  0  0  0  0  0  0  0  0
    7.4629   -0.0224    0.0000 C   0  0  0  0  0  0  0  0  0  0  0  0
    3.2892   -0.8616    0.0000 C   0  0  0  0  0  0  0  0  0  0  0  0
    4.7617   -1.5111    0.0000 C   0  0  0  0  0  0  0  0  0  0  0  0
    3.6464    0.8332    0.0000 C   0  0  0  0  0  0  0  0  0  0  0  0
    2.3107   -0.6554    0.0000 C   0  0  0  0  0  0  0  0  0  0  0  0
    2.6678    1.0394    0.0000 C   0  0  0  0  0  0  0  0  0  0  0  0
    2.0000    0.2951    0.0000 C   0  0  0  0  0  0  0  0  0  0  0  0
    9.1949   -0.0224    0.0000 C   0  0  0  0  0  0  0  0  0  0  0  0
   10.9270   -0.0224    0.0000 C   0  0  0  0  0  0  0  0  0  0  0  0
   11.7930   -0.5224    0.0000 C   0  0  0  0  0  0  0  0  0  0  0  0
   10.0610   -0.5224    0.0000 C   0  0  0  0  0  0  0  0  0  0  0  0
   13.5251   -0.5224    0.0000 C   0  0  0  0  0  0  0  0  0  0  0  0
   12.6590   -0.0224    0.0000 C   0  0  0  0  0  0  0  0  0  0  0  0
   13.5251   -1.5224    0.0000 C   0  0  0  0  0  0  0  0  0  0  0  0
   11.7930   -1.5224    0.0000 C   0  0  0  0  0  0  0  0  0  0  0  0
    9.1949    0.9776    0.0000 C   0  0  0  0  0  0  0  0  0  0  0  0
   10.9270    0.9776    0.0000 C   0  0  0  0  0  0  0  0  0  0  0  0
   12.6590   -2.0224    0.0000 C   0  0  0  0  0  0  0  0  0  0  0  0
   14.4190    0.0123    0.0000 C   0  0  0  0  0  0  0  0  0  0  0  0
   14.4190   -2.0571    0.0000 C   0  0  0  0  0  0  0  0  0  0  0  0
   15.3251   -0.5016    0.0000 C   0  0  0  0  0  0  0  0  0  0  0  0
   11.7930    1.4776    0.0000 C   0  0  0  0  0  0  0  0  0  0  0  0
   12.6590    1.9776    0.0000 C   0  0  0  0  0  0  0  0  0  0  0  0
    6.1293    0.4525    0.0000 H   0  0  0  0  0  0  0  0  0  0  0  0
    5.3323    0.4525    0.0000 H   0  0  0  0  0  0  0  0  0  0  0  0
    7.1338   -0.8324    0.0000 H   0  0  0  0  0  0  0  0  0  0  0  0
    7.8614    0.4525    0.0000 H   0  0  0  0  0  0  0  0  0  0  0  0
    7.0644    0.4525    0.0000 H   0  0  0  0  0  0  0  0  0  0  0  0
    5.2232   -1.9252    0.0000 H   0  0  0  0  0  0  0  0  0  0  0  0
    3.5397   -2.2876    0.0000 H   0  0  0  0  0  0  0  0  0  0  0  0
    4.0604    1.2947    0.0000 H   0  0  0  0  0  0  0  0  0  0  0  0
    7.1338   -1.8324    0.0000 H   0  0  0  0  0  0  0  0  0  0  0  0
    6.0599   -1.8324    0.0000 H   0  0  0  0  0  0  0  0  0  0  0  0
    1.8966   -1.1168    0.0000 H   0  0  0  0  0  0  0  0  0  0  0  0
    2.4752    1.6288    0.0000 H   0  0  0  0  0  0  0  0  0  0  0  0
    1.3933    0.4230    0.0000 H   0  0  0  0  0  0  0  0  0  0  0  0
   10.0610   -1.1424    0.0000 H   0  0  0  0  0  0  0  0  0  0  0  0
   12.6590    0.5976    0.0000 H   0  0  0  0  0  0  0  0  0  0  0  0
   11.2561   -1.8324    0.0000 H   0  0  0  0  0  0  0  0  0  0  0  0
    8.6580    1.2876    0.0000 H   0  0  0  0  0  0  0  0  0  0  0  0
   12.6590   -2.6424    0.0000 H   0  0  0  0  0  0  0  0  0  0  0  0
   14.4118    0.6322    0.0000 H   0  0  0  0  0  0  0  0  0  0  0  0
   14.4118   -2.6770    0.0000 H   0  0  0  0  0  0  0  0  0  0  0  0
   15.8608   -0.1895    0.0000 H   0  0  0  0  0  0  0  0  0  0  0  0
   13.1960    2.2876    0.0000 H   0  0  0  0  0  0  0  0  0  0  0  0
  1 10  1  0  0  0  0
  1 17  1  0  0  0  0
  2 11  1  0  0  0  0
  2 12  1  0  0  0  0
  2 39  1  0  0  0  0
  7  3  1  1  0  0  0
  3 41  1  0  0  0  0
  3 42  1  0  0  0  0
  4 25  2  0  0  0  0
  4 26  1  0  0  0  0
  5 29  2  0  0  0  0
  5 30  1  0  0  0  0
  6  7  1  0  0  0  0
  6  8  1  0  0  0  0
  6 33  1  0  0  0  0
  6 34  1  0  0  0  0
  7 10  1  0  0  0  0
  7 35  1  0  0  0  0
  8  9  1  0  0  0  0
  8 12  2  0  0  0  0
  9 11  1  0  0  0  0
  9 13  2  0  0  0  0
 10 36  1  0  0  0  0
 10 37  1  0  0  0  0
 11 14  2  0  0  0  0
 12 38  1  0  0  0  0
 13 15  1  0  0  0  0
 13 40  1  0  0  0  0
 14 16  1  0  0  0  0
 14 43  1  0  0  0  0
 15 16  2  0  0  0  0
 15 44  1  0  0  0  0
 16 45  1  0  0  0  0
 17 20  2  0  0  0  0
 17 25  1  0  0  0  0
 18 19  1  0  0  0  0
 18 20  1  0  0  0  0
 18 26  2  0  0  0  0
 19 22  2  0  0  0  0
 19 24  1  0  0  0  0
 20 46  1  0  0  0  0
 21 22  1  0  0  0  0
 21 23  2  0  0  0  0
 21 28  1  0  0  0  0
 22 47  1  0  0  0  0
 23 27  1  0  0  0  0
 23 29  1  0  0  0  0
 24 27  2  0  0  0  0
 24 48  1  0  0  0  0
 25 49  1  0  0  0  0
 26 31  1  0  0  0  0
 27 50  1  0  0  0  0
 28 30  2  0  0  0  0
 28 51  1  0  0  0  0
 29 52  1  0  0  0  0
 30 53  1  0  0  0  0
 31 32  3  0  0  0  0
 32 54  1  0  0  0  0
M  END
> <PUBCHEM_COMPOUND_CID>
23647573

> <PUBCHEM_COMPOUND_CANONICALIZED>
1

> <PUBCHEM_CACTVS_COMPLEXITY>
661

> <PUBCHEM_CACTVS_HBOND_ACCEPTOR>
4

> <PUBCHEM_CACTVS_HBOND_DONOR>
2

> <PUBCHEM_CACTVS_ROTATABLE_BOND>
7

> <PUBCHEM_CACTVS_SUBSKEYS>
AAADceB7oAAAAAAAAAAAAAAAAAAAAWAAAAA8eIEAAAAAAFix/gAAHgAQAAAADCzhngY8xvLJlADgGzRnRAyCiCAxYiAI2aA/bJgOJuLEsZuHOCjk0BHY6Aew0PIOwAACAAASAACAAAQAACQAAAAAAAAAAA==

> <PUBCHEM_IUPAC_OPENEYE_NAME>
(2S)-1-[[6-ethynyl-5-(6-isoquinolyl)-3-pyridyl]oxy]-3-(1H-indol-3-yl)propan-2-amine

> <PUBCHEM_IUPAC_CAS_NAME>
(2S)-1-[[6-ethynyl-5-(6-isoquinolinyl)-3-pyridinyl]oxy]-3-(1H-indol-3-yl)-2-propanamine

> <PUBCHEM_IUPAC_NAME_MARKUP>
(2<I>S</I>)-1-(6-ethynyl-5-isoquinolin-6-ylpyridin-3-yl)oxy-3-(1<I>H</I>-indol-3-yl)propan-2-amine

> <PUBCHEM_IUPAC_NAME>
(2S)-1-(6-ethynyl-5-isoquinolin-6-ylpyridin-3-yl)oxy-3-(1H-indol-3-yl)propan-2-amine

> <PUBCHEM_IUPAC_SYSTEMATIC_NAME>
(2S)-1-(6-ethynyl-5-isoquinolin-6-yl-pyridin-3-yl)oxy-3-(1H-indol-3-yl)propan-2-amine

> <PUBCHEM_IUPAC_TRADITIONAL_NAME>
[(1S)-1-[[6-ethynyl-5-(6-isoquinolyl)-3-pyridyl]oxymethyl]-2-(1H-indol-3-yl)ethyl]amine

> <PUBCHEM_IUPAC_INCHI>
InChI=1S/C27H22N4O/c1-2-26-25(19-7-8-20-14-29-10-9-18(20)11-19)13-23(16-31-26)32-17-22(28)12-21-15-30-27-6-4-3-5-24(21)27/h1,3-11,13-16,22,30H,12,17,28H2/t22-/m0/s1

> <PUBCHEM_IUPAC_INCHIKEY>
KYCYRGUYNYCBAH-QFIPXVFZSA-N

> <PUBCHEM_XLOGP3_AA>
4.1

> <PUBCHEM_EXACT_MASS>
418.17936134

> <PUBCHEM_MOLECULAR_FORMULA>
C27H22N4O

> <PUBCHEM_MOLECULAR_WEIGHT>
418.5

> <PUBCHEM_SMILES>
C#CC1=C(C=C(C=N1)OC[C@H](CC2=CNC3=CC=CC=C32)N)C4=CC5=C(C=C4)C=NC=C5

> <PUBCHEM_OPENEYE_CAN_SMILES>
C#CC1=C(C=C(C=N1)OCC(CC2=CNC3=CC=CC=C32)N)C4=CC5=C(C=C4)C=NC=C5

> <PUBCHEM_OPENEYE_ISO_SMILES>
C#CC1=C(C=C(C=N1)OC[C@H](CC2=CNC3=CC=CC=C32)N)C4=CC5=C(C=C4)C=NC=C5

> <PUBCHEM_CACTVS_TPSA>
76.8

> <PUBCHEM_MONOISOTOPIC_WEIGHT>
418.17936134

> <PUBCHEM_TOTAL_CHARGE>
0

> <PUBCHEM_HEAVY_ATOM_COUNT>
32

> <PUBCHEM_ATOM_DEF_STEREO_COUNT>
1

> <PUBCHEM_ATOM_UDEF_STEREO_COUNT>
0

> <PUBCHEM_BOND_DEF_STEREO_COUNT>
0

> <PUBCHEM_BOND_UDEF_STEREO_COUNT>
0

> <PUBCHEM_ISOTOPIC_ATOM_COUNT>
0

> <PUBCHEM_COMPONENT_COUNT>
1

> <PUBCHEM_CACTVS_TAUTO_COUNT>
-1

> <PUBCHEM_COORDINATE_TYPE>
1
5
255

> <PUBCHEM_BONDANNOTATIONS>
11  14  8
13  15  8
14  16  8
15  16  8
17  20  8
17  25  8
18  20  8
18  26  8
19  22  8
19  24  8
2  11  8
2  12  8
21  22  8
21  23  8
21  28  8
23  27  8
23  29  8
24  27  8
28  30  8
7  3  5
4  25  8
4  26  8
5  29  8
5  30  8
8  12  8
8  9  8
9  11  8
9  13  8

$$$$
