49830796
  -OEChem-03202504082D

 30 32  0     0  0  0  0  0  0999 V2000
    5.5443   -2.3047    0.0000 S   0  0  0  0  0  0  0  0  0  0  0  0
    2.0000    2.5000    0.0000 F   0  0  0  0  0  0  0  0  0  0  0  0
    7.6279   -2.3660    0.0000 O   0  0  0  0  0  0  0  0  0  0  0  0
    7.6279   -0.6340    0.0000 O   0  0  0  0  0  0  0  0  0  0  0  0
    2.8660   -2.0000    0.0000 N   0  0  0  0  0  0  0  0  0  0  0  0
    4.5981   -1.0000    0.0000 C   0  0  0  0  0  0  0  0  0  0  0  0
    3.7320   -0.5000    0.0000 C   0  0  0  0  0  0  0  0  0  0  0  0
    4.5981   -2.0000    0.0000 C   0  0  0  0  0  0  0  0  0  0  0  0
    3.7320    0.5000    0.0000 C   0  0  0  0  0  0  0  0  0  0  0  0
    5.5443   -0.6953    0.0000 C   0  0  0  0  0  0  0  0  0  0  0  0
    6.1279   -1.5000    0.0000 C   0  0  0  0  0  0  0  0  0  0  0  0
    2.8660   -1.0000    0.0000 C   0  0  0  0  0  0  0  0  0  0  0  0
    3.7320   -2.5000    0.0000 C   0  0  0  0  0  0  0  0  0  0  0  0
    2.8660    1.0000    0.0000 C   0  0  0  0  0  0  0  0  0  0  0  0
    4.5981    1.0000    0.0000 C   0  0  0  0  0  0  0  0  0  0  0  0
    2.8660    2.0000    0.0000 C   0  0  0  0  0  0  0  0  0  0  0  0
    4.5981    2.0000    0.0000 C   0  0  0  0  0  0  0  0  0  0  0  0
    7.1279   -1.5000    0.0000 C   0  0  0  0  0  0  0  0  0  0  0  0
    3.7320    2.5000    0.0000 C   0  0  0  0  0  0  0  0  0  0  0  0
    8.6279   -2.3660    0.0000 C   0  0  0  0  0  0  0  0  0  0  0  0
    5.7369   -0.1059    0.0000 H   0  0  0  0  0  0  0  0  0  0  0  0
    2.3291   -0.6900    0.0000 H   0  0  0  0  0  0  0  0  0  0  0  0
    3.7320   -3.1200    0.0000 H   0  0  0  0  0  0  0  0  0  0  0  0
    2.3291    0.6900    0.0000 H   0  0  0  0  0  0  0  0  0  0  0  0
    5.1350    0.6900    0.0000 H   0  0  0  0  0  0  0  0  0  0  0  0
    5.1350    2.3100    0.0000 H   0  0  0  0  0  0  0  0  0  0  0  0
    3.7320    3.1200    0.0000 H   0  0  0  0  0  0  0  0  0  0  0  0
    8.6279   -2.9860    0.0000 H   0  0  0  0  0  0  0  0  0  0  0  0
    9.2479   -2.3660    0.0000 H   0  0  0  0  0  0  0  0  0  0  0  0
    8.6279   -1.7460    0.0000 H   0  0  0  0  0  0  0  0  0  0  0  0
  1  8  1  0  0  0  0
  1 11  1  0  0  0  0
  2 16  1  0  0  0  0
  3 18  1  0  0  0  0
  3 20  1  0  0  0  0
  4 18  2  0  0  0  0
  5 12  1  0  0  0  0
  5 13  2  0  0  0  0
  6  7  1  0  0  0  0
  6  8  2  0  0  0  0
  6 10  1  0  0  0  0
  7  9  1  0  0  0  0
  7 12  2  0  0  0  0
  8 13  1  0  0  0  0
  9 14  2  0  0  0  0
  9 15  1  0  0  0  0
 10 11  2  0  0  0  0
 10 21  1  0  0  0  0
 11 18  1  0  0  0  0
 12 22  1  0  0  0  0
 13 23  1  0  0  0  0
 14 16  1  0  0  0  0
 14 24  1  0  0  0  0
 15 17  2  0  0  0  0
 15 25  1  0  0  0  0
 16 19  2  0  0  0  0
 17 19  1  0  0  0  0
 17 26  1  0  0  0  0
 19 27  1  0  0  0  0
 20 28  1  0  0  0  0
 20 29  1  0  0  0  0
 20 30  1  0  0  0  0
M  END
> <PUBCHEM_COMPOUND_CID>
49830796

> <PUBCHEM_COMPOUND_CANONICALIZED>
1

> <PUBCHEM_CACTVS_COMPLEXITY>
368

> <PUBCHEM_CACTVS_HBOND_ACCEPTOR>
5

> <PUBCHEM_CACTVS_HBOND_DONOR>
0

> <PUBCHEM_CACTVS_ROTATABLE_BOND>
3

> <PUBCHEM_CACTVS_SUBSKEYS>
AAADccByMQBAAAAAAAAAAAAAAAAAASAAAAA8QAAAAAAAAFgB/AAAHwQAAAAADADB2g4+idIIFAisAjD3TACDoKA1CDBI2D0oTNgIJnLgtZmEMQhkwAHo6YeYyPCOgAAAAAAAAAAAAAAAAAAAAAAAAAAAAA==

> <PUBCHEM_IUPAC_OPENEYE_NAME>
methyl 4-(3-fluorophenyl)thieno[2,3-c]pyridine-2-carboxylate

> <PUBCHEM_IUPAC_CAS_NAME>
4-(3-fluorophenyl)-2-thieno[2,3-c]pyridinecarboxylic acid methyl ester

> <PUBCHEM_IUPAC_NAME_MARKUP>
methyl 4-(3-fluorophenyl)thieno[2,3-c]pyridine-2-carboxylate

> <PUBCHEM_IUPAC_NAME>
methyl 4-(3-fluorophenyl)thieno[2,3-c]pyridine-2-carboxylate

> <PUBCHEM_IUPAC_SYSTEMATIC_NAME>
methyl 4-(3-fluorophenyl)thieno[2,3-c]pyridine-2-carboxylate

> <PUBCHEM_IUPAC_TRADITIONAL_NAME>
4-(3-fluorophenyl)thieno[2,3-c]pyridine-2-carboxylic acid methyl ester

> <PUBCHEM_IUPAC_INCHI>
InChI=1S/C15H10FNO2S/c1-19-15(18)13-6-11-12(7-17-8-14(11)20-13)9-3-2-4-10(16)5-9/h2-8H,1H3

> <PUBCHEM_IUPAC_INCHIKEY>
KYUYCTKUEHJRCI-UHFFFAOYSA-N

> <PUBCHEM_XLOGP3_AA>
3.8

> <PUBCHEM_EXACT_MASS>
287.04162790

> <PUBCHEM_MOLECULAR_FORMULA>
C15H10FNO2S

> <PUBCHEM_MOLECULAR_WEIGHT>
287.31

> <PUBCHEM_SMILES>
COC(=O)C1=CC2=C(S1)C=NC=C2C3=CC(=CC=C3)F

> <PUBCHEM_OPENEYE_CAN_SMILES>
COC(=O)C1=CC2=C(S1)C=NC=C2C3=CC(=CC=C3)F

> <PUBCHEM_OPENEYE_ISO_SMILES>
COC(=O)C1=CC2=C(S1)C=NC=C2C3=CC(=CC=C3)F

> <PUBCHEM_CACTVS_TPSA>
67.4

> <PUBCHEM_MONOISOTOPIC_WEIGHT>
287.04162790

> <PUBCHEM_TOTAL_CHARGE>
0

> <PUBCHEM_HEAVY_ATOM_COUNT>
20

> <PUBCHEM_ATOM_DEF_STEREO_COUNT>
0

> <PUBCHEM_ATOM_UDEF_STEREO_COUNT>
0

> <PUBCHEM_BOND_DEF_STEREO_COUNT>
0

> <PUBCHEM_BOND_UDEF_STEREO_COUNT>
0

> <PUBCHEM_ISOTOPIC_ATOM_COUNT>
0

> <PUBCHEM_COMPONENT_COUNT>
1

> <PUBCHEM_CACTVS_TAUTO_COUNT>
-1

> <PUBCHEM_COORDINATE_TYPE>
1
5
255

> <PUBCHEM_BONDANNOTATIONS>
1  11  8
1  8  8
10  11  8
14  16  8
15  17  8
16  19  8
17  19  8
5  12  8
5  13  8
6  10  8
6  7  8
6  8  8
7  12  8
8  13  8
9  14  8
9  15  8

$$$$
