44364084
  -OEChem-03202505452D

 60 68  0     1  0  0  0  0  0999 V2000
    2.3081   -0.8497    0.0000 O   0  0  0  0  0  0  0  0  0  0  0  0
    8.8863   -3.7968    0.0000 O   0  0  0  0  0  0  0  0  0  0  0  0
   10.1099   -0.4351    0.0000 O   0  0  0  0  0  0  0  0  0  0  0  0
    4.8347    1.2641    0.0000 N   0  0  0  0  0  0  0  0  0  0  0  0
    5.4327   -1.7005    0.0000 N   0  0  0  0  0  0  0  0  0  0  0  0
    6.1168    0.1789    0.0000 N   0  0  0  0  0  0  0  0  0  0  0  0
    9.7774   -2.2176    0.0000 N   0  0  0  0  0  0  0  0  0  0  0  0
    4.3569   -0.6844    0.0000 C   0  0  2  0  0  0  0  0  0  0  0  0
    4.0981    0.2815    0.0000 C   0  0  1  0  0  0  0  0  0  0  0  0
    6.4175   -1.5268    0.0000 C   0  0  0  0  0  0  0  0  0  0  0  0
    6.7596   -0.5871    0.0000 C   0  0  0  0  0  0  0  0  0  0  0  0
    7.0747   -2.3350    0.0000 C   0  0  0  0  0  0  0  0  0  0  0  0
    7.7824   -0.3904    0.0000 C   0  0  0  0  0  0  0  0  0  0  0  0
    3.0852   -1.4791    0.0000 C   0  0  0  0  0  0  0  0  0  0  0  0
    2.6665    0.0838    0.0000 C   0  0  0  0  0  0  0  0  0  0  0  0
    5.4597   -2.6939    0.0000 C   0  0  0  0  0  0  0  0  0  0  0  0
    6.7760    0.9226    0.0000 C   0  0  0  0  0  0  0  0  0  0  0  0
    6.3867   -3.0521    0.0000 C   0  0  0  0  0  0  0  0  0  0  0  0
    7.7164    0.6012    0.0000 C   0  0  0  0  0  0  0  0  0  0  0  0
    8.1019   -2.1620    0.0000 C   0  0  0  0  0  0  0  0  0  0  0  0
    8.4581   -1.1832    0.0000 C   0  0  0  0  0  0  0  0  0  0  0  0
    5.3347    2.1302    0.0000 C   0  0  0  0  0  0  0  0  0  0  0  0
    4.6438   -3.3311    0.0000 C   0  0  0  0  0  0  0  0  0  0  0  0
    6.5606    1.9352    0.0000 C   0  0  0  0  0  0  0  0  0  0  0  0
    8.9195   -2.7974    0.0000 C   0  0  0  0  0  0  0  0  0  0  0  0
    9.4929   -1.2220    0.0000 C   0  0  0  0  0  0  0  0  0  0  0  0
    6.5621   -4.0724    0.0000 C   0  0  0  0  0  0  0  0  0  0  0  0
    8.5066    1.2700    0.0000 C   0  0  0  0  0  0  0  0  0  0  0  0
    4.8347    2.9962    0.0000 C   0  0  0  0  0  0  0  0  0  0  0  0
    4.7956   -4.3551    0.0000 C   0  0  0  0  0  0  0  0  0  0  0  0
    7.3350    2.6220    0.0000 C   0  0  0  0  0  0  0  0  0  0  0  0
    5.7612   -4.7282    0.0000 C   0  0  0  0  0  0  0  0  0  0  0  0
    8.3146    2.2872    0.0000 C   0  0  0  0  0  0  0  0  0  0  0  0
    5.3347    3.8622    0.0000 C   0  0  0  0  0  0  0  0  0  0  0  0
    3.8347    2.9962    0.0000 C   0  0  0  0  0  0  0  0  0  0  0  0
    4.8347    4.7282    0.0000 C   0  0  0  0  0  0  0  0  0  0  0  0
    3.3347    3.8622    0.0000 C   0  0  0  0  0  0  0  0  0  0  0  0
    3.8347    4.7282    0.0000 C   0  0  0  0  0  0  0  0  0  0  0  0
    4.5769   -1.5054    0.0000 H   0  0  0  0  0  0  0  0  0  0  0  0
    3.8781    1.1026    0.0000 H   0  0  0  0  0  0  0  0  0  0  0  0
    3.4698   -1.9654    0.0000 H   0  0  0  0  0  0  0  0  0  0  0  0
    2.6443   -1.9149    0.0000 H   0  0  0  0  0  0  0  0  0  0  0  0
    2.0586    0.2062    0.0000 H   0  0  0  0  0  0  0  0  0  0  0  0
    2.6855    0.7036    0.0000 H   0  0  0  0  0  0  0  0  0  0  0  0
    5.8097    2.5287    0.0000 H   0  0  0  0  0  0  0  0  0  0  0  0
    5.8097    1.7316    0.0000 H   0  0  0  0  0  0  0  0  0  0  0  0
    4.0681   -3.1009    0.0000 H   0  0  0  0  0  0  0  0  0  0  0  0
    5.9716    2.1289    0.0000 H   0  0  0  0  0  0  0  0  0  0  0  0
    7.1430   -4.2892    0.0000 H   0  0  0  0  0  0  0  0  0  0  0  0
    9.0909    1.0627    0.0000 H   0  0  0  0  0  0  0  0  0  0  0  0
   10.3600   -2.4297    0.0000 H   0  0  0  0  0  0  0  0  0  0  0  0
    4.3114   -4.7423    0.0000 H   0  0  0  0  0  0  0  0  0  0  0  0
    7.2130    3.2299    0.0000 H   0  0  0  0  0  0  0  0  0  0  0  0
    5.8592   -5.3404    0.0000 H   0  0  0  0  0  0  0  0  0  0  0  0
    8.7832    2.6932    0.0000 H   0  0  0  0  0  0  0  0  0  0  0  0
    5.9547    3.8622    0.0000 H   0  0  0  0  0  0  0  0  0  0  0  0
    3.5247    2.4592    0.0000 H   0  0  0  0  0  0  0  0  0  0  0  0
    5.1447    5.2652    0.0000 H   0  0  0  0  0  0  0  0  0  0  0  0
    2.7147    3.8622    0.0000 H   0  0  0  0  0  0  0  0  0  0  0  0
    3.5247    5.2652    0.0000 H   0  0  0  0  0  0  0  0  0  0  0  0
  1 14  1  0  0  0  0
  1 15  1  0  0  0  0
  2 25  2  0  0  0  0
  3 26  2  0  0  0  0
  4  8  1  0  0  0  0
  4  9  1  0  0  0  0
  4 22  1  0  0  0  0
  5  8  1  0  0  0  0
  5 10  1  0  0  0  0
  5 16  1  0  0  0  0
  6  9  1  0  0  0  0
  6 11  1  0  0  0  0
  6 17  1  0  0  0  0
  7 25  1  0  0  0  0
  7 26  1  0  0  0  0
  7 51  1  0  0  0  0
  8 14  1  0  0  0  0
  8 39  1  1  0  0  0
  9 15  1  0  0  0  0
  9 40  1  6  0  0  0
 10 11  2  0  0  0  0
 10 12  1  0  0  0  0
 11 13  1  0  0  0  0
 12 18  1  0  0  0  0
 12 20  2  0  0  0  0
 13 19  1  0  0  0  0
 13 21  2  0  0  0  0
 14 41  1  0  0  0  0
 14 42  1  0  0  0  0
 15 43  1  0  0  0  0
 15 44  1  0  0  0  0
 16 18  1  0  0  0  0
 16 23  2  0  0  0  0
 17 19  1  0  0  0  0
 17 24  2  0  0  0  0
 18 27  2  0  0  0  0
 19 28  2  0  0  0  0
 20 21  1  0  0  0  0
 20 25  1  0  0  0  0
 21 26  1  0  0  0  0
 22 29  1  0  0  0  0
 22 45  1  0  0  0  0
 22 46  1  0  0  0  0
 23 30  1  0  0  0  0
 23 47  1  0  0  0  0
 24 31  1  0  0  0  0
 24 48  1  0  0  0  0
 27 32  1  0  0  0  0
 27 49  1  0  0  0  0
 28 33  1  0  0  0  0
 28 50  1  0  0  0  0
 29 34  2  0  0  0  0
 29 35  1  0  0  0  0
 30 32  2  0  0  0  0
 30 52  1  0  0  0  0
 31 33  2  0  0  0  0
 31 53  1  0  0  0  0
 32 54  1  0  0  0  0
 33 55  1  0  0  0  0
 34 36  1  0  0  0  0
 34 56  1  0  0  0  0
 35 37  2  0  0  0  0
 35 57  1  0  0  0  0
 36 38  2  0  0  0  0
 36 58  1  0  0  0  0
 37 38  1  0  0  0  0
 37 59  1  0  0  0  0
 38 60  1  0  0  0  0
M  END
> <PUBCHEM_COMPOUND_CID>
44364084

> <PUBCHEM_COMPOUND_CANONICALIZED>
1

> <PUBCHEM_CACTVS_COMPLEXITY>
934

> <PUBCHEM_CACTVS_HBOND_ACCEPTOR>
4

> <PUBCHEM_CACTVS_HBOND_DONOR>
1

> <PUBCHEM_CACTVS_ROTATABLE_BOND>
2

> <PUBCHEM_CACTVS_SUBSKEYS>
AAADceB7sAAAAAAAAAAAAAAAAAAAAWLFgAA8YMGCBYAAAFix/gAAHgAQAAAADAjhngYxwPPMFACoAyVyVACCgCQlEiAI2CE4dNiKYPLAlZGXIQhohCLYyScdicCeyAACQAASACCQAASAACQAQAAAAAAAAA==

> <PUBCHEM_IUPAC_OPENEYE_NAME>
(2S,6R)-29-benzyl-4-oxa-1,7,17,29-tetrazaoctacyclo[12.12.2.12,6.07,28.08,13.015,19.020,27.021,26]nonacosa-8,10,12,14,19,21,23,25,27-nonaene-16,18-dione

> <PUBCHEM_IUPAC_CAS_NAME>
(2S,6R)-29-(phenylmethyl)-4-oxa-1,7,17,29-tetrazaoctacyclo[12.12.2.12,6.07,28.08,13.015,19.020,27.021,26]nonacosa-8,10,12,14,19,21,23,25,27-nonaene-16,18-dione

> <PUBCHEM_IUPAC_NAME_MARKUP>
(2<I>S</I>,6<I>R</I>)-29-benzyl-4-oxa-1,7,17,29-tetrazaoctacyclo[12.12.2.1<SUP>2,6</SUP>.0<SUP>7,28</SUP>.0<SUP>8,13</SUP>.0<SUP>15,19</SUP>.0<SUP>20,27</SUP>.0<SUP>21,26</SUP>]nonacosa-8,10,12,14,19,21,23,25,27-nonaene-16,18-dione

> <PUBCHEM_IUPAC_NAME>
(2S,6R)-29-benzyl-4-oxa-1,7,17,29-tetrazaoctacyclo[12.12.2.12,6.07,28.08,13.015,19.020,27.021,26]nonacosa-8,10,12,14,19,21,23,25,27-nonaene-16,18-dione

> <PUBCHEM_IUPAC_SYSTEMATIC_NAME>
(2S,6R)-29-(phenylmethyl)-4-oxa-1,7,17,29-tetrazaoctacyclo[12.12.2.12,6.07,28.08,13.015,19.020,27.021,26]nonacosa-8,10,12,14,19,21,23,25,27-nonaene-16,18-dione

> <PUBCHEM_IUPAC_TRADITIONAL_NAME>
(2S,6R)-29-benzyl-4-oxa-1,7,17,29-tetrazaoctacyclo[12.12.2.12,6.07,28.08,13.015,19.020,27.021,26]nonacosa-8,10,12,14,19,21,23,25,27-nonaene-16,18-quinone

> <PUBCHEM_IUPAC_INCHI>
InChI=1S/C31H22N4O3/c36-30-26-24-18-10-4-6-12-20(18)34-22-15-38-16-23(33(22)14-17-8-2-1-3-9-17)35-21-13-7-5-11-19(21)25(29(35)28(24)34)27(26)31(37)32-30/h1-13,22-23H,14-16H2,(H,32,36,37)/t22-,23+

> <PUBCHEM_IUPAC_INCHIKEY>
WRIMTZUGSPTTJW-ZRZAMGCNSA-N

> <PUBCHEM_XLOGP3_AA>
4.6

> <PUBCHEM_EXACT_MASS>
498.16919058

> <PUBCHEM_MOLECULAR_FORMULA>
C31H22N4O3

> <PUBCHEM_MOLECULAR_WEIGHT>
498.5

> <PUBCHEM_SMILES>
C1[C@@H]2N([C@H](CO1)N3C4=CC=CC=C4C5=C6C(=C7C8=CC=CC=C8N2C7=C53)C(=O)NC6=O)CC9=CC=CC=C9

> <PUBCHEM_OPENEYE_CAN_SMILES>
C1C2N(C(CO1)N3C4=CC=CC=C4C5=C6C(=C7C8=CC=CC=C8N2C7=C53)C(=O)NC6=O)CC9=CC=CC=C9

> <PUBCHEM_OPENEYE_ISO_SMILES>
C1[C@@H]2N([C@H](CO1)N3C4=CC=CC=C4C5=C6C(=C7C8=CC=CC=C8N2C7=C53)C(=O)NC6=O)CC9=CC=CC=C9

> <PUBCHEM_CACTVS_TPSA>
68.5

> <PUBCHEM_MONOISOTOPIC_WEIGHT>
498.16919058

> <PUBCHEM_TOTAL_CHARGE>
0

> <PUBCHEM_HEAVY_ATOM_COUNT>
38

> <PUBCHEM_ATOM_DEF_STEREO_COUNT>
2

> <PUBCHEM_ATOM_UDEF_STEREO_COUNT>
0

> <PUBCHEM_BOND_DEF_STEREO_COUNT>
0

> <PUBCHEM_BOND_UDEF_STEREO_COUNT>
0

> <PUBCHEM_ISOTOPIC_ATOM_COUNT>
0

> <PUBCHEM_COMPONENT_COUNT>
1

> <PUBCHEM_CACTVS_TAUTO_COUNT>
-1

> <PUBCHEM_COORDINATE_TYPE>
1
5
255

> <PUBCHEM_BONDANNOTATIONS>
10  11  8
10  12  8
11  13  8
12  18  8
12  20  8
13  19  8
13  21  8
16  18  8
16  23  8
17  19  8
17  24  8
18  27  8
19  28  8
20  21  8
23  30  8
24  31  8
27  32  8
28  33  8
29  34  8
29  35  8
30  32  8
31  33  8
34  36  8
35  37  8
36  38  8
37  38  8
5  10  8
5  16  8
6  11  8
6  17  8
8  39  5
9  40  6

$$$$
