49830301
  -OEChem-03202502512D

 49 52  0     1  0  0  0  0  0999 V2000
    7.2566   -0.9273    0.0000 Cl  0  0  0  0  0  0  0  0  0  0  0  0
    3.5602    4.4890    0.0000 S   0  0  0  0  0  0  0  0  0  0  0  0
    2.6097    4.7997    0.0000 O   0  0  0  0  0  0  0  0  0  0  0  0
    4.5107    4.1784    0.0000 O   0  0  0  0  0  0  0  0  0  0  0  0
    3.2496    3.5385    0.0000 N   0  0  0  0  0  0  0  0  0  0  0  0
    3.9639    0.1489    0.0000 N   0  0  0  0  0  0  0  0  0  0  0  0
    4.3211   -1.5460    0.0000 N   0  0  0  0  0  0  0  0  0  0  0  0
    5.6103   -0.3892    0.0000 N   0  0  0  0  0  0  0  0  0  0  0  0
    4.6783   -4.8502    0.0000 N   0  0  0  0  0  0  0  0  0  0  0  0
    2.8660   -5.0455    0.0000 N   0  0  0  0  0  0  0  0  0  0  0  0
    3.9174    2.7942    0.0000 C   0  0  3  0  0  0  0  0  0  0  0  0
    4.2746    1.0994    0.0000 C   0  0  3  0  0  0  0  0  0  0  0  0
    3.6067    1.8437    0.0000 C   0  0  0  0  0  0  0  0  0  0  0  0
    4.8959    3.0004    0.0000 C   0  0  0  0  0  0  0  0  0  0  0  0
    5.2531    1.3056    0.0000 C   0  0  0  0  0  0  0  0  0  0  0  0
    5.5637    2.2561    0.0000 C   0  0  0  0  0  0  0  0  0  0  0  0
    4.6318   -0.5954    0.0000 C   0  0  0  0  0  0  0  0  0  0  0  0
    3.8709    5.4396    0.0000 C   0  0  0  0  0  0  0  0  0  0  0  0
    4.9889   -2.2902    0.0000 C   0  0  0  0  0  0  0  0  0  0  0  0
    4.6783   -3.2408    0.0000 C   0  0  0  0  0  0  0  0  0  0  0  0
    6.2781   -1.1335    0.0000 C   0  0  0  0  0  0  0  0  0  0  0  0
    5.9674   -2.0840    0.0000 C   0  0  0  0  0  0  0  0  0  0  0  0
    3.7320   -3.5455    0.0000 C   0  0  0  0  0  0  0  0  0  0  0  0
    5.2619   -4.0455    0.0000 C   0  0  0  0  0  0  0  0  0  0  0  0
    3.7320   -4.5455    0.0000 C   0  0  0  0  0  0  0  0  0  0  0  0
    2.8660   -3.0455    0.0000 C   0  0  0  0  0  0  0  0  0  0  0  0
    2.0000   -3.5455    0.0000 C   0  0  0  0  0  0  0  0  0  0  0  0
    2.0000   -4.5455    0.0000 C   0  0  0  0  0  0  0  0  0  0  0  0
    4.1100    3.3835    0.0000 H   0  0  0  0  0  0  0  0  0  0  0  0
    4.6886    0.6379    0.0000 H   0  0  0  0  0  0  0  0  0  0  0  0
    3.0598    2.1357    0.0000 H   0  0  0  0  0  0  0  0  0  0  0  0
    3.2242    1.3558    0.0000 H   0  0  0  0  0  0  0  0  0  0  0  0
    5.4222    3.3281    0.0000 H   0  0  0  0  0  0  0  0  0  0  0  0
    4.6646    3.5757    0.0000 H   0  0  0  0  0  0  0  0  0  0  0  0
    5.2736    0.6860    0.0000 H   0  0  0  0  0  0  0  0  0  0  0  0
    5.8669    1.2183    0.0000 H   0  0  0  0  0  0  0  0  0  0  0  0
    6.1107    1.9641    0.0000 H   0  0  0  0  0  0  0  0  0  0  0  0
    5.9463    2.7440    0.0000 H   0  0  0  0  0  0  0  0  0  0  0  0
    2.6429    3.4107    0.0000 H   0  0  0  0  0  0  0  0  0  0  0  0
    3.3572    0.0210    0.0000 H   0  0  0  0  0  0  0  0  0  0  0  0
    4.4602    5.2470    0.0000 H   0  0  0  0  0  0  0  0  0  0  0  0
    4.0635    6.0289    0.0000 H   0  0  0  0  0  0  0  0  0  0  0  0
    3.2816    5.6322    0.0000 H   0  0  0  0  0  0  0  0  0  0  0  0
    6.3815   -2.5455    0.0000 H   0  0  0  0  0  0  0  0  0  0  0  0
    5.8819   -4.0455    0.0000 H   0  0  0  0  0  0  0  0  0  0  0  0
    4.8709   -5.4396    0.0000 H   0  0  0  0  0  0  0  0  0  0  0  0
    2.8660   -2.4255    0.0000 H   0  0  0  0  0  0  0  0  0  0  0  0
    1.4631   -3.2355    0.0000 H   0  0  0  0  0  0  0  0  0  0  0  0
    1.4631   -4.8555    0.0000 H   0  0  0  0  0  0  0  0  0  0  0  0
  1 21  1  0  0  0  0
  2  3  2  0  0  0  0
  2  4  2  0  0  0  0
  2  5  1  0  0  0  0
  2 18  1  0  0  0  0
  5 11  1  0  0  0  0
  5 39  1  0  0  0  0
  6 12  1  0  0  0  0
  6 17  1  0  0  0  0
  6 40  1  0  0  0  0
  7 17  2  0  0  0  0
  7 19  1  0  0  0  0
  8 17  1  0  0  0  0
  8 21  2  0  0  0  0
  9 24  1  0  0  0  0
  9 25  1  0  0  0  0
  9 46  1  0  0  0  0
 10 25  1  0  0  0  0
 10 28  2  0  0  0  0
 11 13  1  0  0  0  0
 11 14  1  0  0  0  0
 11 29  1  0  0  0  0
 12 13  1  0  0  0  0
 12 15  1  0  0  0  0
 12 30  1  0  0  0  0
 13 31  1  0  0  0  0
 13 32  1  0  0  0  0
 14 16  1  0  0  0  0
 14 33  1  0  0  0  0
 14 34  1  0  0  0  0
 15 16  1  0  0  0  0
 15 35  1  0  0  0  0
 15 36  1  0  0  0  0
 16 37  1  0  0  0  0
 16 38  1  0  0  0  0
 18 41  1  0  0  0  0
 18 42  1  0  0  0  0
 18 43  1  0  0  0  0
 19 20  1  0  0  0  0
 19 22  2  0  0  0  0
 20 23  1  0  0  0  0
 20 24  2  0  0  0  0
 21 22  1  0  0  0  0
 22 44  1  0  0  0  0
 23 25  2  0  0  0  0
 23 26  1  0  0  0  0
 24 45  1  0  0  0  0
 26 27  2  0  0  0  0
 26 47  1  0  0  0  0
 27 28  1  0  0  0  0
 27 48  1  0  0  0  0
 28 49  1  0  0  0  0
M  END
> <PUBCHEM_COMPOUND_CID>
49830301

> <PUBCHEM_COMPOUND_CANONICALIZED>
1

> <PUBCHEM_CACTVS_COMPLEXITY>
632

> <PUBCHEM_CACTVS_HBOND_ACCEPTOR>
7

> <PUBCHEM_CACTVS_HBOND_DONOR>
3

> <PUBCHEM_CACTVS_ROTATABLE_BOND>
5

> <PUBCHEM_CACTVS_SUBSKEYS>
AAADceB7sABEAAAAAAAAAAAAAAAAAWAAAAA8WIAAAAAAAFgB/gAAHAYQQAAADCrBHyS/sN7JkAKgAzZnZHCCgCmxB6AJ2aA4ZpiIKOLB29GEJAhokALIyCcQgIAOgAAAAAAAAAAAAAAACAAAAAAAAAAAAA==

> <PUBCHEM_IUPAC_OPENEYE_NAME>
N-[3-[[4-chloro-6-(1H-pyrrolo[2,3-b]pyridin-3-yl)pyrimidin-2-yl]amino]cyclohexyl]methanesulfonamide

> <PUBCHEM_IUPAC_CAS_NAME>
N-[3-[[4-chloro-6-(1H-pyrrolo[2,3-b]pyridin-3-yl)-2-pyrimidinyl]amino]cyclohexyl]methanesulfonamide

> <PUBCHEM_IUPAC_NAME_MARKUP>
<I>N</I>-[3-[[4-chloro-6-(1<I>H</I>-pyrrolo[2,3-b]pyridin-3-yl)pyrimidin-2-yl]amino]cyclohexyl]methanesulfonamide

> <PUBCHEM_IUPAC_NAME>
N-[3-[[4-chloro-6-(1H-pyrrolo[2,3-b]pyridin-3-yl)pyrimidin-2-yl]amino]cyclohexyl]methanesulfonamide

> <PUBCHEM_IUPAC_SYSTEMATIC_NAME>
N-[3-[[4-chloranyl-6-(1H-pyrrolo[2,3-b]pyridin-3-yl)pyrimidin-2-yl]amino]cyclohexyl]methanesulfonamide

> <PUBCHEM_IUPAC_TRADITIONAL_NAME>
N-[3-[[4-chloro-6-(1H-pyrrolo[2,3-b]pyridin-3-yl)pyrimidin-2-yl]amino]cyclohexyl]methanesulfonamide

> <PUBCHEM_IUPAC_INCHI>
InChI=1S/C18H21ClN6O2S/c1-28(26,27)25-12-5-2-4-11(8-12)22-18-23-15(9-16(19)24-18)14-10-21-17-13(14)6-3-7-20-17/h3,6-7,9-12,25H,2,4-5,8H2,1H3,(H,20,21)(H,22,23,24)

> <PUBCHEM_IUPAC_INCHIKEY>
CHADTINFLWZSKR-UHFFFAOYSA-N

> <PUBCHEM_XLOGP3_AA>
3

> <PUBCHEM_EXACT_MASS>
420.1135228

> <PUBCHEM_MOLECULAR_FORMULA>
C18H21ClN6O2S

> <PUBCHEM_MOLECULAR_WEIGHT>
420.9

> <PUBCHEM_SMILES>
CS(=O)(=O)NC1CCCC(C1)NC2=NC(=CC(=N2)Cl)C3=CNC4=C3C=CC=N4

> <PUBCHEM_OPENEYE_CAN_SMILES>
CS(=O)(=O)NC1CCCC(C1)NC2=NC(=CC(=N2)Cl)C3=CNC4=C3C=CC=N4

> <PUBCHEM_OPENEYE_ISO_SMILES>
CS(=O)(=O)NC1CCCC(C1)NC2=NC(=CC(=N2)Cl)C3=CNC4=C3C=CC=N4

> <PUBCHEM_CACTVS_TPSA>
121

> <PUBCHEM_MONOISOTOPIC_WEIGHT>
420.1135228

> <PUBCHEM_TOTAL_CHARGE>
0

> <PUBCHEM_HEAVY_ATOM_COUNT>
28

> <PUBCHEM_ATOM_DEF_STEREO_COUNT>
0

> <PUBCHEM_ATOM_UDEF_STEREO_COUNT>
2

> <PUBCHEM_BOND_DEF_STEREO_COUNT>
0

> <PUBCHEM_BOND_UDEF_STEREO_COUNT>
0

> <PUBCHEM_ISOTOPIC_ATOM_COUNT>
0

> <PUBCHEM_COMPONENT_COUNT>
1

> <PUBCHEM_CACTVS_TAUTO_COUNT>
-1

> <PUBCHEM_COORDINATE_TYPE>
1
5
255

> <PUBCHEM_BONDANNOTATIONS>
10  25  8
10  28  8
19  22  8
20  23  8
20  24  8
21  22  8
23  25  8
23  26  8
26  27  8
27  28  8
11  5  3
12  6  3
7  17  8
7  19  8
8  17  8
8  21  8
9  24  8
9  25  8

$$$$
