49830298
  -OEChem-03202501302D

 34 36  0     0  0  0  0  0  0999 V2000
    3.9639    2.0479    0.0000 Cl  0  0  0  0  0  0  0  0  0  0  0  0
    4.6783   -2.9512    0.0000 N   0  0  0  0  0  0  0  0  0  0  0  0
    7.2566    0.9718    0.0000 N   0  0  0  0  0  0  0  0  0  0  0  0
    2.8660   -3.1464    0.0000 N   0  0  0  0  0  0  0  0  0  0  0  0
    5.6103    1.5098    0.0000 N   0  0  0  0  0  0  0  0  0  0  0  0
    8.8564    3.0790    0.0000 N   0  0  0  0  0  0  0  0  0  0  0  0
    4.6783   -1.3417    0.0000 C   0  0  0  0  0  0  0  0  0  0  0  0
    3.7320   -1.6464    0.0000 C   0  0  0  0  0  0  0  0  0  0  0  0
    4.9889   -0.3912    0.0000 C   0  0  0  0  0  0  0  0  0  0  0  0
    3.7320   -2.6464    0.0000 C   0  0  0  0  0  0  0  0  0  0  0  0
    5.2619   -2.1464    0.0000 C   0  0  0  0  0  0  0  0  0  0  0  0
    5.9674   -0.1850    0.0000 C   0  0  0  0  0  0  0  0  0  0  0  0
    6.2781    0.7656    0.0000 C   0  0  0  0  0  0  0  0  0  0  0  0
    2.8660   -1.1464    0.0000 C   0  0  0  0  0  0  0  0  0  0  0  0
    4.3211    0.3531    0.0000 C   0  0  0  0  0  0  0  0  0  0  0  0
    7.5673    1.9223    0.0000 C   0  0  0  0  0  0  0  0  0  0  0  0
    8.5458    2.1285    0.0000 C   0  0  0  0  0  0  0  0  0  0  0  0
    4.6318    1.3036    0.0000 C   0  0  0  0  0  0  0  0  0  0  0  0
    2.0000   -1.6464    0.0000 C   0  0  0  0  0  0  0  0  0  0  0  0
    2.0000   -2.6464    0.0000 C   0  0  0  0  0  0  0  0  0  0  0  0
    5.8819   -2.1464    0.0000 H   0  0  0  0  0  0  0  0  0  0  0  0
    6.3815   -0.6464    0.0000 H   0  0  0  0  0  0  0  0  0  0  0  0
    4.8709   -3.5405    0.0000 H   0  0  0  0  0  0  0  0  0  0  0  0
    2.8660   -0.5264    0.0000 H   0  0  0  0  0  0  0  0  0  0  0  0
    3.7144    0.2253    0.0000 H   0  0  0  0  0  0  0  0  0  0  0  0
    7.5467    2.5420    0.0000 H   0  0  0  0  0  0  0  0  0  0  0  0
    6.9534    2.0096    0.0000 H   0  0  0  0  0  0  0  0  0  0  0  0
    7.6707    0.5103    0.0000 H   0  0  0  0  0  0  0  0  0  0  0  0
    8.5663    1.5088    0.0000 H   0  0  0  0  0  0  0  0  0  0  0  0
    9.1596    2.0412    0.0000 H   0  0  0  0  0  0  0  0  0  0  0  0
    1.4631   -1.3364    0.0000 H   0  0  0  0  0  0  0  0  0  0  0  0
    1.4631   -2.9564    0.0000 H   0  0  0  0  0  0  0  0  0  0  0  0
    9.4631    3.2069    0.0000 H   0  0  0  0  0  0  0  0  0  0  0  0
    8.4424    3.5405    0.0000 H   0  0  0  0  0  0  0  0  0  0  0  0
  1 18  1  0  0  0  0
  2 10  1  0  0  0  0
  2 11  1  0  0  0  0
  2 23  1  0  0  0  0
  3 13  1  0  0  0  0
  3 16  1  0  0  0  0
  3 28  1  0  0  0  0
  4 10  1  0  0  0  0
  4 20  2  0  0  0  0
  5 13  2  0  0  0  0
  5 18  1  0  0  0  0
  6 17  1  0  0  0  0
  6 33  1  0  0  0  0
  6 34  1  0  0  0  0
  7  8  1  0  0  0  0
  7  9  1  0  0  0  0
  7 11  2  0  0  0  0
  8 10  2  0  0  0  0
  8 14  1  0  0  0  0
  9 12  2  0  0  0  0
  9 15  1  0  0  0  0
 11 21  1  0  0  0  0
 12 13  1  0  0  0  0
 12 22  1  0  0  0  0
 14 19  2  0  0  0  0
 14 24  1  0  0  0  0
 15 18  2  0  0  0  0
 15 25  1  0  0  0  0
 16 17  1  0  0  0  0
 16 26  1  0  0  0  0
 16 27  1  0  0  0  0
 17 29  1  0  0  0  0
 17 30  1  0  0  0  0
 19 20  1  0  0  0  0
 19 31  1  0  0  0  0
 20 32  1  0  0  0  0
M  END
> <PUBCHEM_COMPOUND_CID>
49830298

> <PUBCHEM_COMPOUND_CANONICALIZED>
1

> <PUBCHEM_CACTVS_COMPLEXITY>
316

> <PUBCHEM_CACTVS_HBOND_ACCEPTOR>
4

> <PUBCHEM_CACTVS_HBOND_DONOR>
3

> <PUBCHEM_CACTVS_ROTATABLE_BOND>
4

> <PUBCHEM_CACTVS_SUBSKEYS>
AAADccBzgAAEAAAAAAAAAAAAAAAAAWAAAAAsWAAAAAAAAFgB/gAAHAIQAAAADALBGyQ9sN7JkACgAjJnZACCgCmxB6AJ2aA4ZpiIaOLBm5GUIAhokALIyCcQgMAOgAAAAAAAAAAAAAAAAAAAAAAAAAAAAA==

> <PUBCHEM_IUPAC_OPENEYE_NAME>
N'-[6-chloro-4-(1H-pyrrolo[2,3-b]pyridin-3-yl)-2-pyridyl]ethane-1,2-diamine

> <PUBCHEM_IUPAC_CAS_NAME>
N'-[6-chloro-4-(1H-pyrrolo[2,3-b]pyridin-3-yl)-2-pyridinyl]ethane-1,2-diamine

> <PUBCHEM_IUPAC_NAME_MARKUP>
<I>N</I>&apos;-[6-chloro-4-(1<I>H</I>-pyrrolo[2,3-b]pyridin-3-yl)pyridin-2-yl]ethane-1,2-diamine

> <PUBCHEM_IUPAC_NAME>
N'-[6-chloro-4-(1H-pyrrolo[2,3-b]pyridin-3-yl)pyridin-2-yl]ethane-1,2-diamine

> <PUBCHEM_IUPAC_SYSTEMATIC_NAME>
N'-[6-chloranyl-4-(1H-pyrrolo[2,3-b]pyridin-3-yl)pyridin-2-yl]ethane-1,2-diamine

> <PUBCHEM_IUPAC_TRADITIONAL_NAME>
2-aminoethyl-[6-chloro-4-(1H-pyrrolo[2,3-b]pyridin-3-yl)-2-pyridyl]amine

> <PUBCHEM_IUPAC_INCHI>
InChI=1S/C14H14ClN5/c15-12-6-9(7-13(20-12)17-5-3-16)11-8-19-14-10(11)2-1-4-18-14/h1-2,4,6-8H,3,5,16H2,(H,17,20)(H,18,19)

> <PUBCHEM_IUPAC_INCHIKEY>
XNWKXXIGSPPPBH-UHFFFAOYSA-N

> <PUBCHEM_XLOGP3_AA>
2.2

> <PUBCHEM_EXACT_MASS>
287.0937732

> <PUBCHEM_MOLECULAR_FORMULA>
C14H14ClN5

> <PUBCHEM_MOLECULAR_WEIGHT>
287.75

> <PUBCHEM_SMILES>
C1=CC2=C(NC=C2C3=CC(=NC(=C3)Cl)NCCN)N=C1

> <PUBCHEM_OPENEYE_CAN_SMILES>
C1=CC2=C(NC=C2C3=CC(=NC(=C3)Cl)NCCN)N=C1

> <PUBCHEM_OPENEYE_ISO_SMILES>
C1=CC2=C(NC=C2C3=CC(=NC(=C3)Cl)NCCN)N=C1

> <PUBCHEM_CACTVS_TPSA>
79.6

> <PUBCHEM_MONOISOTOPIC_WEIGHT>
287.0937732

> <PUBCHEM_TOTAL_CHARGE>
0

> <PUBCHEM_HEAVY_ATOM_COUNT>
20

> <PUBCHEM_ATOM_DEF_STEREO_COUNT>
0

> <PUBCHEM_ATOM_UDEF_STEREO_COUNT>
0

> <PUBCHEM_BOND_DEF_STEREO_COUNT>
0

> <PUBCHEM_BOND_UDEF_STEREO_COUNT>
0

> <PUBCHEM_ISOTOPIC_ATOM_COUNT>
0

> <PUBCHEM_COMPONENT_COUNT>
1

> <PUBCHEM_CACTVS_TAUTO_COUNT>
-1

> <PUBCHEM_COORDINATE_TYPE>
1
5
255

> <PUBCHEM_BONDANNOTATIONS>
12  13  8
14  19  8
15  18  8
19  20  8
2  10  8
2  11  8
4  10  8
4  20  8
5  13  8
5  18  8
7  11  8
7  8  8
8  10  8
8  14  8
9  12  8
9  15  8

$$$$
