11851810
  -OEChem-03202503292D

 52 57  0     0  0  0  0  0  0999 V2000
    2.9060   -1.3548    0.0000 O   0  0  0  0  0  0  0  0  0  0  0  0
    5.7538   -3.4239    0.0000 O   0  0  0  0  0  0  0  0  0  0  0  0
    6.3981    1.9239    0.0000 N   0  0  0  0  0  0  0  0  0  0  0  0
    8.1301    2.9239    0.0000 N   0  0  0  0  0  0  0  0  0  0  0  0
    5.5321    0.4239    0.0000 N   0  0  0  0  0  0  0  0  0  0  0  0
    4.6660    1.9239    0.0000 N   0  0  0  0  0  0  0  0  0  0  0  0
    4.1660   -2.6149    0.0000 N   0  0  0  0  0  0  0  0  0  0  0  0
    7.7266   -0.4066    0.0000 N   0  0  0  0  0  0  0  0  0  0  0  0
    7.2641    1.4239    0.0000 C   0  0  0  0  0  0  0  0  0  0  0  0
    6.3981    2.9239    0.0000 C   0  0  0  0  0  0  0  0  0  0  0  0
    8.1301    1.9239    0.0000 C   0  0  0  0  0  0  0  0  0  0  0  0
    7.2641    3.4239    0.0000 C   0  0  0  0  0  0  0  0  0  0  0  0
    5.5321    1.4239    0.0000 C   0  0  0  0  0  0  0  0  0  0  0  0
    4.6660   -0.0761    0.0000 C   0  0  0  0  0  0  0  0  0  0  0  0
    4.6660   -1.0761    0.0000 C   0  0  0  0  0  0  0  0  0  0  0  0
    5.4751   -1.6639    0.0000 C   0  0  0  0  0  0  0  0  0  0  0  0
    6.4261   -1.3548    0.0000 C   0  0  0  0  0  0  0  0  0  0  0  0
    3.8000    0.4239    0.0000 C   0  0  0  0  0  0  0  0  0  0  0  0
    7.2298   -1.9398    0.0000 C   0  0  0  0  0  0  0  0  0  0  0  0
    3.8000    1.4239    0.0000 C   0  0  0  0  0  0  0  0  0  0  0  0
    3.8570   -1.6639    0.0000 C   0  0  0  0  0  0  0  0  0  0  0  0
    8.0378   -1.3507    0.0000 C   0  0  0  0  0  0  0  0  0  0  0  0
    5.1660   -2.6149    0.0000 C   0  0  0  0  0  0  0  0  0  0  0  0
    6.7325   -0.4091    0.0000 C   0  0  0  0  0  0  0  0  0  0  0  0
    2.9061   -0.1107    0.0000 C   0  0  0  0  0  0  0  0  0  0  0  0
    2.9061    1.9586    0.0000 C   0  0  0  0  0  0  0  0  0  0  0  0
    7.3361   -2.9342    0.0000 C   0  0  0  0  0  0  0  0  0  0  0  0
    8.9521   -1.7558    0.0000 C   0  0  0  0  0  0  0  0  0  0  0  0
    2.0000    0.4031    0.0000 C   0  0  0  0  0  0  0  0  0  0  0  0
    2.0000    1.4447    0.0000 C   0  0  0  0  0  0  0  0  0  0  0  0
    8.2503   -3.3393    0.0000 C   0  0  0  0  0  0  0  0  0  0  0  0
    9.0583   -2.7502    0.0000 C   0  0  0  0  0  0  0  0  0  0  0  0
    6.8656    0.9490    0.0000 H   0  0  0  0  0  0  0  0  0  0  0  0
    7.6626    0.9490    0.0000 H   0  0  0  0  0  0  0  0  0  0  0  0
    6.1860    3.5065    0.0000 H   0  0  0  0  0  0  0  0  0  0  0  0
    5.7875    2.8163    0.0000 H   0  0  0  0  0  0  0  0  0  0  0  0
    8.3422    1.3413    0.0000 H   0  0  0  0  0  0  0  0  0  0  0  0
    8.7407    2.0316    0.0000 H   0  0  0  0  0  0  0  0  0  0  0  0
    7.6626    3.8989    0.0000 H   0  0  0  0  0  0  0  0  0  0  0  0
    6.8656    3.8989    0.0000 H   0  0  0  0  0  0  0  0  0  0  0  0
    8.6671    3.2339    0.0000 H   0  0  0  0  0  0  0  0  0  0  0  0
    6.3672    0.0918    0.0000 H   0  0  0  0  0  0  0  0  0  0  0  0
    3.8016   -3.1165    0.0000 H   0  0  0  0  0  0  0  0  0  0  0  0
    8.0892    0.0963    0.0000 H   0  0  0  0  0  0  0  0  0  0  0  0
    2.9132   -0.7307    0.0000 H   0  0  0  0  0  0  0  0  0  0  0  0
    6.8351   -3.2995    0.0000 H   0  0  0  0  0  0  0  0  0  0  0  0
    2.9132    2.5786    0.0000 H   0  0  0  0  0  0  0  0  0  0  0  0
    9.4530   -1.3905    0.0000 H   0  0  0  0  0  0  0  0  0  0  0  0
    1.4643    0.0910    0.0000 H   0  0  0  0  0  0  0  0  0  0  0  0
    1.4643    1.7568    0.0000 H   0  0  0  0  0  0  0  0  0  0  0  0
    8.3162   -3.9558    0.0000 H   0  0  0  0  0  0  0  0  0  0  0  0
    9.6252   -3.0014    0.0000 H   0  0  0  0  0  0  0  0  0  0  0  0
  1 21  2  0  0  0  0
  2 23  2  0  0  0  0
  3  9  1  0  0  0  0
  3 10  1  0  0  0  0
  3 13  1  0  0  0  0
  4 11  1  0  0  0  0
  4 12  1  0  0  0  0
  4 41  1  0  0  0  0
  5 13  1  0  0  0  0
  5 14  2  0  0  0  0
  6 13  2  0  0  0  0
  6 20  1  0  0  0  0
  7 21  1  0  0  0  0
  7 23  1  0  0  0  0
  7 43  1  0  0  0  0
  8 22  1  0  0  0  0
  8 24  1  0  0  0  0
  8 44  1  0  0  0  0
  9 11  1  0  0  0  0
  9 33  1  0  0  0  0
  9 34  1  0  0  0  0
 10 12  1  0  0  0  0
 10 35  1  0  0  0  0
 10 36  1  0  0  0  0
 11 37  1  0  0  0  0
 11 38  1  0  0  0  0
 12 39  1  0  0  0  0
 12 40  1  0  0  0  0
 14 15  1  0  0  0  0
 14 18  1  0  0  0  0
 15 16  2  0  0  0  0
 15 21  1  0  0  0  0
 16 17  1  0  0  0  0
 16 23  1  0  0  0  0
 17 19  1  0  0  0  0
 17 24  2  0  0  0  0
 18 20  1  0  0  0  0
 18 25  2  0  0  0  0
 19 22  1  0  0  0  0
 19 27  2  0  0  0  0
 20 26  2  0  0  0  0
 22 28  2  0  0  0  0
 24 42  1  0  0  0  0
 25 29  1  0  0  0  0
 25 45  1  0  0  0  0
 26 30  1  0  0  0  0
 26 47  1  0  0  0  0
 27 31  1  0  0  0  0
 27 46  1  0  0  0  0
 28 32  1  0  0  0  0
 28 48  1  0  0  0  0
 29 30  2  0  0  0  0
 29 49  1  0  0  0  0
 30 50  1  0  0  0  0
 31 32  2  0  0  0  0
 31 51  1  0  0  0  0
 32 52  1  0  0  0  0
M  END
> <PUBCHEM_COMPOUND_CID>
11851810

> <PUBCHEM_COMPOUND_CANONICALIZED>
1

> <PUBCHEM_CACTVS_COMPLEXITY>
793

> <PUBCHEM_CACTVS_HBOND_ACCEPTOR>
6

> <PUBCHEM_CACTVS_HBOND_DONOR>
3

> <PUBCHEM_CACTVS_ROTATABLE_BOND>
3

> <PUBCHEM_CACTVS_SUBSKEYS>
AAADceB7sAAAAAAAAAAAAAAAAAAAAWIAAAA8eIEAAAAAAFix/gAAHgAQAAAADAjBngQ90PfJkACoAzV3dACCgCkxAqAJ2aE4ZNiIaPrA3dGUJAholCLIySccicCegAAAAAACAAAAAAAAAAQAAAAAAAAAAA==

> <PUBCHEM_IUPAC_OPENEYE_NAME>
3-(1H-indol-3-yl)-4-(2-piperazin-1-ylquinazolin-4-yl)pyrrole-2,5-dione

> <PUBCHEM_IUPAC_CAS_NAME>
3-(1H-indol-3-yl)-4-[2-(1-piperazinyl)-4-quinazolinyl]pyrrole-2,5-dione

> <PUBCHEM_IUPAC_NAME_MARKUP>
3-(1<I>H</I>-indol-3-yl)-4-(2-piperazin-1-ylquinazolin-4-yl)pyrrole-2,5-dione

> <PUBCHEM_IUPAC_NAME>
3-(1H-indol-3-yl)-4-(2-piperazin-1-ylquinazolin-4-yl)pyrrole-2,5-dione

> <PUBCHEM_IUPAC_SYSTEMATIC_NAME>
3-(1H-indol-3-yl)-4-(2-piperazin-1-ylquinazolin-4-yl)pyrrole-2,5-dione

> <PUBCHEM_IUPAC_TRADITIONAL_NAME>
3-(1H-indol-3-yl)-4-(2-piperazinoquinazolin-4-yl)-3-pyrroline-2,5-quinone

> <PUBCHEM_IUPAC_INCHI>
InChI=1S/C24H20N6O2/c31-22-19(16-13-26-17-7-3-1-5-14(16)17)20(23(32)29-22)21-15-6-2-4-8-18(15)27-24(28-21)30-11-9-25-10-12-30/h1-8,13,25-26H,9-12H2,(H,29,31,32)

> <PUBCHEM_IUPAC_INCHIKEY>
WAKGEHXTOOFEAE-UHFFFAOYSA-N

> <PUBCHEM_XLOGP3_AA>
2.2

> <PUBCHEM_EXACT_MASS>
424.16477390

> <PUBCHEM_MOLECULAR_FORMULA>
C24H20N6O2

> <PUBCHEM_MOLECULAR_WEIGHT>
424.5

> <PUBCHEM_SMILES>
C1CN(CCN1)C2=NC3=CC=CC=C3C(=N2)C4=C(C(=O)NC4=O)C5=CNC6=CC=CC=C65

> <PUBCHEM_OPENEYE_CAN_SMILES>
C1CN(CCN1)C2=NC3=CC=CC=C3C(=N2)C4=C(C(=O)NC4=O)C5=CNC6=CC=CC=C65

> <PUBCHEM_OPENEYE_ISO_SMILES>
C1CN(CCN1)C2=NC3=CC=CC=C3C(=N2)C4=C(C(=O)NC4=O)C5=CNC6=CC=CC=C65

> <PUBCHEM_CACTVS_TPSA>
103

> <PUBCHEM_MONOISOTOPIC_WEIGHT>
424.16477390

> <PUBCHEM_TOTAL_CHARGE>
0

> <PUBCHEM_HEAVY_ATOM_COUNT>
32

> <PUBCHEM_ATOM_DEF_STEREO_COUNT>
0

> <PUBCHEM_ATOM_UDEF_STEREO_COUNT>
0

> <PUBCHEM_BOND_DEF_STEREO_COUNT>
0

> <PUBCHEM_BOND_UDEF_STEREO_COUNT>
0

> <PUBCHEM_ISOTOPIC_ATOM_COUNT>
0

> <PUBCHEM_COMPONENT_COUNT>
1

> <PUBCHEM_CACTVS_TAUTO_COUNT>
-1

> <PUBCHEM_COORDINATE_TYPE>
1
5
255

> <PUBCHEM_BONDANNOTATIONS>
14  18  8
17  19  8
17  24  8
18  20  8
18  25  8
19  22  8
19  27  8
20  26  8
22  28  8
25  29  8
26  30  8
27  31  8
28  32  8
29  30  8
31  32  8
5  13  8
5  14  8
6  13  8
6  20  8
8  22  8
8  24  8

$$$$
