19022684
  -OEChem-03202503502D

 31 34  0     0  0  0  0  0  0999 V2000
    8.4851   -2.2028    0.0000 S   0  0  0  0  0  0  0  0  0  0  0  0
    2.0000   -1.3981    0.0000 F   0  0  0  0  0  0  0  0  0  0  0  0
    7.5388   -0.8981    0.0000 N   0  0  0  0  0  0  0  0  0  0  0  0
    6.5878   -2.2071    0.0000 N   0  0  0  0  0  0  0  0  0  0  0  0
    5.6607    2.2641    0.0000 N   0  0  0  0  0  0  0  0  0  0  0  0
    6.5878   -0.5891    0.0000 C   0  0  0  0  0  0  0  0  0  0  0  0
    6.0000   -1.3981    0.0000 C   0  0  0  0  0  0  0  0  0  0  0  0
    7.5388   -1.8981    0.0000 C   0  0  0  0  0  0  0  0  0  0  0  0
    6.2788    0.3620    0.0000 C   0  0  0  0  0  0  0  0  0  0  0  0
    5.0000   -1.3981    0.0000 C   0  0  0  0  0  0  0  0  0  0  0  0
    8.4851   -0.5933    0.0000 C   0  0  0  0  0  0  0  0  0  0  0  0
    9.0687   -1.3981    0.0000 C   0  0  0  0  0  0  0  0  0  0  0  0
    4.5000   -0.5321    0.0000 C   0  0  0  0  0  0  0  0  0  0  0  0
    4.5000   -2.2641    0.0000 C   0  0  0  0  0  0  0  0  0  0  0  0
    6.9479    1.1051    0.0000 C   0  0  0  0  0  0  0  0  0  0  0  0
    5.3006    0.5699    0.0000 C   0  0  0  0  0  0  0  0  0  0  0  0
    3.5000   -0.5321    0.0000 C   0  0  0  0  0  0  0  0  0  0  0  0
    3.5000   -2.2641    0.0000 C   0  0  0  0  0  0  0  0  0  0  0  0
    3.0000   -1.3981    0.0000 C   0  0  0  0  0  0  0  0  0  0  0  0
    6.6389    2.0562    0.0000 C   0  0  0  0  0  0  0  0  0  0  0  0
    4.9916    1.5210    0.0000 C   0  0  0  0  0  0  0  0  0  0  0  0
    8.6777   -0.0040    0.0000 H   0  0  0  0  0  0  0  0  0  0  0  0
    9.6887   -1.3981    0.0000 H   0  0  0  0  0  0  0  0  0  0  0  0
    4.8100    0.0049    0.0000 H   0  0  0  0  0  0  0  0  0  0  0  0
    4.8100   -2.8010    0.0000 H   0  0  0  0  0  0  0  0  0  0  0  0
    7.5544    0.9762    0.0000 H   0  0  0  0  0  0  0  0  0  0  0  0
    4.8858    0.1092    0.0000 H   0  0  0  0  0  0  0  0  0  0  0  0
    3.1900    0.0049    0.0000 H   0  0  0  0  0  0  0  0  0  0  0  0
    3.1900   -2.8010    0.0000 H   0  0  0  0  0  0  0  0  0  0  0  0
    7.0537    2.5169    0.0000 H   0  0  0  0  0  0  0  0  0  0  0  0
    4.3852    1.6499    0.0000 H   0  0  0  0  0  0  0  0  0  0  0  0
  1  8  1  0  0  0  0
  1 12  1  0  0  0  0
  2 19  1  0  0  0  0
  3  6  1  0  0  0  0
  3  8  1  0  0  0  0
  3 11  1  0  0  0  0
  4  7  1  0  0  0  0
  4  8  2  0  0  0  0
  5 20  2  0  0  0  0
  5 21  1  0  0  0  0
  6  7  2  0  0  0  0
  6  9  1  0  0  0  0
  7 10  1  0  0  0  0
  9 15  2  0  0  0  0
  9 16  1  0  0  0  0
 10 13  2  0  0  0  0
 10 14  1  0  0  0  0
 11 12  2  0  0  0  0
 11 22  1  0  0  0  0
 12 23  1  0  0  0  0
 13 17  1  0  0  0  0
 13 24  1  0  0  0  0
 14 18  2  0  0  0  0
 14 25  1  0  0  0  0
 15 20  1  0  0  0  0
 15 26  1  0  0  0  0
 16 21  2  0  0  0  0
 16 27  1  0  0  0  0
 17 19  2  0  0  0  0
 17 28  1  0  0  0  0
 18 19  1  0  0  0  0
 18 29  1  0  0  0  0
 20 30  1  0  0  0  0
 21 31  1  0  0  0  0
M  END
> <PUBCHEM_COMPOUND_CID>
19022684

> <PUBCHEM_COMPOUND_CANONICALIZED>
1

> <PUBCHEM_CACTVS_COMPLEXITY>
355

> <PUBCHEM_CACTVS_HBOND_ACCEPTOR>
4

> <PUBCHEM_CACTVS_HBOND_DONOR>
0

> <PUBCHEM_CACTVS_ROTATABLE_BOND>
2

> <PUBCHEM_CACTVS_SUBSKEYS>
AAADccB7AQBAAAAAAAAAAAAAAAAAAWLAAAA8QAAAAAAWAAAB/AAAHQQAAAAADAjFXgy9kZcMGAikAzRnZACC8K1xGrhJ2Cw4dJiIaOLAmZGUIAhogALIyCcQgMAOAAAAAAAAAAAAAAAAAAAAAAAAAAAAAA==

> <PUBCHEM_IUPAC_OPENEYE_NAME>
6-(4-fluorophenyl)-5-(4-pyridyl)imidazo[2,1-b]thiazole

> <PUBCHEM_IUPAC_CAS_NAME>
6-(4-fluorophenyl)-5-pyridin-4-ylimidazo[2,1-b]thiazole

> <PUBCHEM_IUPAC_NAME_MARKUP>
6-(4-fluorophenyl)-5-pyridin-4-ylimidazo[2,1-b][1,3]thiazole

> <PUBCHEM_IUPAC_NAME>
6-(4-fluorophenyl)-5-pyridin-4-ylimidazo[2,1-b][1,3]thiazole

> <PUBCHEM_IUPAC_SYSTEMATIC_NAME>
6-(4-fluorophenyl)-5-pyridin-4-yl-imidazo[2,1-b][1,3]thiazole

> <PUBCHEM_IUPAC_TRADITIONAL_NAME>
6-(4-fluorophenyl)-5-(4-pyridyl)imidazo[2,1-b]thiazole

> <PUBCHEM_IUPAC_INCHI>
InChI=1S/C16H10FN3S/c17-13-3-1-11(2-4-13)14-15(12-5-7-18-8-6-12)20-9-10-21-16(20)19-14/h1-10H

> <PUBCHEM_IUPAC_INCHIKEY>
PYDWRLNPMMKKCI-UHFFFAOYSA-N

> <PUBCHEM_XLOGP3_AA>
4.2

> <PUBCHEM_EXACT_MASS>
295.05794667

> <PUBCHEM_MOLECULAR_FORMULA>
C16H10FN3S

> <PUBCHEM_MOLECULAR_WEIGHT>
295.3

> <PUBCHEM_SMILES>
C1=CC(=CC=C1C2=C(N3C=CSC3=N2)C4=CC=NC=C4)F

> <PUBCHEM_OPENEYE_CAN_SMILES>
C1=CC(=CC=C1C2=C(N3C=CSC3=N2)C4=CC=NC=C4)F

> <PUBCHEM_OPENEYE_ISO_SMILES>
C1=CC(=CC=C1C2=C(N3C=CSC3=N2)C4=CC=NC=C4)F

> <PUBCHEM_CACTVS_TPSA>
58.4

> <PUBCHEM_MONOISOTOPIC_WEIGHT>
295.05794667

> <PUBCHEM_TOTAL_CHARGE>
0

> <PUBCHEM_HEAVY_ATOM_COUNT>
21

> <PUBCHEM_ATOM_DEF_STEREO_COUNT>
0

> <PUBCHEM_ATOM_UDEF_STEREO_COUNT>
0

> <PUBCHEM_BOND_DEF_STEREO_COUNT>
0

> <PUBCHEM_BOND_UDEF_STEREO_COUNT>
0

> <PUBCHEM_ISOTOPIC_ATOM_COUNT>
0

> <PUBCHEM_COMPONENT_COUNT>
1

> <PUBCHEM_CACTVS_TAUTO_COUNT>
-1

> <PUBCHEM_COORDINATE_TYPE>
1
5
255

> <PUBCHEM_BONDANNOTATIONS>
1  12  8
1  8  8
10  13  8
10  14  8
11  12  8
13  17  8
14  18  8
15  20  8
16  21  8
17  19  8
18  19  8
3  11  8
3  6  8
3  8  8
4  7  8
4  8  8
5  20  8
5  21  8
6  7  8
9  15  8
9  16  8

$$$$
