9881974
  -OEChem-03202502412D

 39 40  0     1  0  0  0  0  0999 V2000
    5.8228    0.7421    0.0000 O   0  0  0  0  0  0  0  0  0  0  0  0
    5.1980   -1.5899    0.0000 O   0  0  0  0  0  0  0  0  0  0  0  0
    3.4909    1.3669    0.0000 N   0  0  0  0  0  0  0  0  0  0  0  0
    2.8660   -0.9650    0.0000 N   0  0  0  0  0  0  0  0  0  0  0  0
    2.8660   -3.9650    0.0000 N   0  0  0  0  0  0  0  0  0  0  0  0
    3.4909    3.0990    0.0000 C   0  0  0  0  0  0  0  0  0  0  0  0
    3.9909    2.2330    0.0000 C   0  0  3  0  0  0  0  0  0  0  0  0
    2.9909    3.9650    0.0000 C   0  0  0  0  0  0  0  0  0  0  0  0
    4.3569    3.5990    0.0000 C   0  0  0  0  0  0  0  0  0  0  0  0
    2.6248    2.5990    0.0000 C   0  0  0  0  0  0  0  0  0  0  0  0
    4.9909    2.2330    0.0000 C   0  0  0  0  0  0  0  0  0  0  0  0
    3.9909    0.5009    0.0000 C   0  0  0  0  0  0  0  0  0  0  0  0
    3.7320   -0.4650    0.0000 C   0  0  0  0  0  0  0  0  0  0  0  0
    4.9568    0.2421    0.0000 C   0  0  0  0  0  0  0  0  0  0  0  0
    4.6980   -0.7238    0.0000 C   0  0  0  0  0  0  0  0  0  0  0  0
    2.8660   -1.9650    0.0000 C   0  0  0  0  0  0  0  0  0  0  0  0
    3.7320   -2.4650    0.0000 C   0  0  0  0  0  0  0  0  0  0  0  0
    2.0000   -2.4650    0.0000 C   0  0  0  0  0  0  0  0  0  0  0  0
    3.7320   -3.4650    0.0000 C   0  0  0  0  0  0  0  0  0  0  0  0
    2.0000   -3.4650    0.0000 C   0  0  0  0  0  0  0  0  0  0  0  0
    4.3009    1.6960    0.0000 H   0  0  0  0  0  0  0  0  0  0  0  0
    3.5278    4.2750    0.0000 H   0  0  0  0  0  0  0  0  0  0  0  0
    2.6809    4.5020    0.0000 H   0  0  0  0  0  0  0  0  0  0  0  0
    2.4539    3.6550    0.0000 H   0  0  0  0  0  0  0  0  0  0  0  0
    4.6669    3.0620    0.0000 H   0  0  0  0  0  0  0  0  0  0  0  0
    4.8938    3.9090    0.0000 H   0  0  0  0  0  0  0  0  0  0  0  0
    4.0469    4.1359    0.0000 H   0  0  0  0  0  0  0  0  0  0  0  0
    2.3148    3.1359    0.0000 H   0  0  0  0  0  0  0  0  0  0  0  0
    2.0879    2.2890    0.0000 H   0  0  0  0  0  0  0  0  0  0  0  0
    2.9348    2.0620    0.0000 H   0  0  0  0  0  0  0  0  0  0  0  0
    2.8709    1.3669    0.0000 H   0  0  0  0  0  0  0  0  0  0  0  0
    4.9909    1.6130    0.0000 H   0  0  0  0  0  0  0  0  0  0  0  0
    5.6109    2.2330    0.0000 H   0  0  0  0  0  0  0  0  0  0  0  0
    4.9909    2.8530    0.0000 H   0  0  0  0  0  0  0  0  0  0  0  0
    2.3291   -0.6550    0.0000 H   0  0  0  0  0  0  0  0  0  0  0  0
    4.2690   -2.1550    0.0000 H   0  0  0  0  0  0  0  0  0  0  0  0
    1.4631   -2.1550    0.0000 H   0  0  0  0  0  0  0  0  0  0  0  0
    4.2690   -3.7750    0.0000 H   0  0  0  0  0  0  0  0  0  0  0  0
    1.4631   -3.7750    0.0000 H   0  0  0  0  0  0  0  0  0  0  0  0
  1 14  2  0  0  0  0
  2 15  2  0  0  0  0
  3  7  1  0  0  0  0
  3 12  1  0  0  0  0
  3 31  1  0  0  0  0
  4 13  1  0  0  0  0
  4 16  1  0  0  0  0
  4 35  1  0  0  0  0
  5 19  2  0  0  0  0
  5 20  1  0  0  0  0
  6  7  1  0  0  0  0
  6  8  1  0  0  0  0
  6  9  1  0  0  0  0
  6 10  1  0  0  0  0
  7 11  1  0  0  0  0
  7 21  1  0  0  0  0
  8 22  1  0  0  0  0
  8 23  1  0  0  0  0
  8 24  1  0  0  0  0
  9 25  1  0  0  0  0
  9 26  1  0  0  0  0
  9 27  1  0  0  0  0
 10 28  1  0  0  0  0
 10 29  1  0  0  0  0
 10 30  1  0  0  0  0
 11 32  1  0  0  0  0
 11 33  1  0  0  0  0
 11 34  1  0  0  0  0
 12 13  2  0  0  0  0
 12 14  1  0  0  0  0
 13 15  1  0  0  0  0
 14 15  1  0  0  0  0
 16 17  2  0  0  0  0
 16 18  1  0  0  0  0
 17 19  1  0  0  0  0
 17 36  1  0  0  0  0
 18 20  2  0  0  0  0
 18 37  1  0  0  0  0
 19 38  1  0  0  0  0
 20 39  1  0  0  0  0
M  END
> <PUBCHEM_COMPOUND_CID>
9881974

> <PUBCHEM_COMPOUND_CANONICALIZED>
1

> <PUBCHEM_CACTVS_COMPLEXITY>
443

> <PUBCHEM_CACTVS_HBOND_ACCEPTOR>
5

> <PUBCHEM_CACTVS_HBOND_DONOR>
2

> <PUBCHEM_CACTVS_ROTATABLE_BOND>
5

> <PUBCHEM_CACTVS_SUBSKEYS>
AAADceBzMAAAAAAAAAAAAAAAAABAAAAAAAAsAAAAAAAAAAABgAAAHgAQAAAADizBkgQ+wJLIEACoALR3RACCgCAxAiAI2KG4ZNgIIGrA0fGEJAhgkADIyUYQAAAJAAAAAAAAAAAAAAAAAAAAAAAAAAAAAA==

> <PUBCHEM_IUPAC_OPENEYE_NAME>
3-(4-pyridylamino)-4-(1,2,2-trimethylpropylamino)cyclobut-3-ene-1,2-dione

> <PUBCHEM_IUPAC_CAS_NAME>
3-(3,3-dimethylbutan-2-ylamino)-4-(pyridin-4-ylamino)cyclobut-3-ene-1,2-dione

> <PUBCHEM_IUPAC_NAME_MARKUP>
3-(3,3-dimethylbutan-2-ylamino)-4-(pyridin-4-ylamino)cyclobut-3-ene-1,2-dione

> <PUBCHEM_IUPAC_NAME>
3-(3,3-dimethylbutan-2-ylamino)-4-(pyridin-4-ylamino)cyclobut-3-ene-1,2-dione

> <PUBCHEM_IUPAC_SYSTEMATIC_NAME>
3-(3,3-dimethylbutan-2-ylamino)-4-(pyridin-4-ylamino)cyclobut-3-ene-1,2-dione

> <PUBCHEM_IUPAC_TRADITIONAL_NAME>
3-(4-pyridylamino)-4-(1,2,2-trimethylpropylamino)cyclobut-3-ene-1,2-quinone

> <PUBCHEM_IUPAC_INCHI>
InChI=1S/C15H19N3O2/c1-9(15(2,3)4)17-11-12(14(20)13(11)19)18-10-5-7-16-8-6-10/h5-9,17H,1-4H3,(H,16,18)

> <PUBCHEM_IUPAC_INCHIKEY>
IQNOGQGSOHNMCL-UHFFFAOYSA-N

> <PUBCHEM_XLOGP3_AA>
2.6

> <PUBCHEM_EXACT_MASS>
273.147726857

> <PUBCHEM_MOLECULAR_FORMULA>
C15H19N3O2

> <PUBCHEM_MOLECULAR_WEIGHT>
273.33

> <PUBCHEM_SMILES>
CC(C(C)(C)C)NC1=C(C(=O)C1=O)NC2=CC=NC=C2

> <PUBCHEM_OPENEYE_CAN_SMILES>
CC(C(C)(C)C)NC1=C(C(=O)C1=O)NC2=CC=NC=C2

> <PUBCHEM_OPENEYE_ISO_SMILES>
CC(C(C)(C)C)NC1=C(C(=O)C1=O)NC2=CC=NC=C2

> <PUBCHEM_CACTVS_TPSA>
71.1

> <PUBCHEM_MONOISOTOPIC_WEIGHT>
273.147726857

> <PUBCHEM_TOTAL_CHARGE>
0

> <PUBCHEM_HEAVY_ATOM_COUNT>
20

> <PUBCHEM_ATOM_DEF_STEREO_COUNT>
0

> <PUBCHEM_ATOM_UDEF_STEREO_COUNT>
1

> <PUBCHEM_BOND_DEF_STEREO_COUNT>
0

> <PUBCHEM_BOND_UDEF_STEREO_COUNT>
0

> <PUBCHEM_ISOTOPIC_ATOM_COUNT>
0

> <PUBCHEM_COMPONENT_COUNT>
1

> <PUBCHEM_CACTVS_TAUTO_COUNT>
-1

> <PUBCHEM_COORDINATE_TYPE>
1
5
255

> <PUBCHEM_BONDANNOTATIONS>
12  13  8
12  14  8
13  15  8
14  15  8
16  17  8
16  18  8
17  19  8
18  20  8
5  19  8
5  20  8
7  11  3

$$$$
