20579089
  -OEChem-03192523222D

 63 66  0     1  0  0  0  0  0999 V2000
    6.3301   -5.0600    0.0000 O   0  0  0  0  0  0  0  0  0  0  0  0
    2.8660   -5.0600    0.0000 O   0  0  0  0  0  0  0  0  0  0  0  0
    4.5981   -6.0600    0.0000 O   0  0  0  0  0  0  0  0  0  0  0  0
    6.3301    3.9400    0.0000 N   0  0  3  0  0  0  0  0  0  0  0  0
    6.3301    5.9400    0.0000 N   0  0  0  0  0  0  0  0  0  0  0  0
    7.1962    2.4400    0.0000 N   0  0  0  0  0  0  0  0  0  0  0  0
    5.4641   -0.5600    0.0000 N   0  0  0  0  0  0  0  0  0  0  0  0
    4.5981   -2.0600    0.0000 N   0  0  0  0  0  0  0  0  0  0  0  0
    6.3301   -2.0600    0.0000 N   0  0  0  0  0  0  0  0  0  0  0  0
    7.1962    5.4400    0.0000 C   0  0  2  0  0  0  0  0  0  0  0  0
    7.1962    4.4400    0.0000 C   0  0  0  0  0  0  0  0  0  0  0  0
    5.4641    4.4400    0.0000 C   0  0  0  0  0  0  0  0  0  0  0  0
    5.4641    5.4400    0.0000 C   0  0  0  0  0  0  0  0  0  0  0  0
    8.0622    5.9400    0.0000 C   0  0  0  0  0  0  0  0  0  0  0  0
    6.3301    2.9400    0.0000 C   0  0  0  0  0  0  0  0  0  0  0  0
    8.9282    5.4400    0.0000 C   0  0  0  0  0  0  0  0  0  0  0  0
    5.4641    2.4400    0.0000 C   0  0  0  0  0  0  0  0  0  0  0  0
    5.4641    1.4400    0.0000 C   0  0  0  0  0  0  0  0  0  0  0  0
    6.3301    0.9400    0.0000 C   0  0  0  0  0  0  0  0  0  0  0  0
    7.1962    1.4400    0.0000 C   0  0  0  0  0  0  0  0  0  0  0  0
    6.3301   -0.0600    0.0000 C   0  0  0  0  0  0  0  0  0  0  0  0
    7.1962   -0.5600    0.0000 C   0  0  0  0  0  0  0  0  0  0  0  0
    5.4641   -1.5600    0.0000 C   0  0  0  0  0  0  0  0  0  0  0  0
    7.1962   -1.5600    0.0000 C   0  0  0  0  0  0  0  0  0  0  0  0
    4.5981   -3.0600    0.0000 C   0  0  0  0  0  0  0  0  0  0  0  0
    3.7320   -3.5600    0.0000 C   0  0  0  0  0  0  0  0  0  0  0  0
    5.4641   -3.5600    0.0000 C   0  0  0  0  0  0  0  0  0  0  0  0
    5.4641   -4.5600    0.0000 C   0  0  0  0  0  0  0  0  0  0  0  0
    3.7320   -4.5600    0.0000 C   0  0  0  0  0  0  0  0  0  0  0  0
    4.5981   -5.0600    0.0000 C   0  0  0  0  0  0  0  0  0  0  0  0
    6.3301   -6.0600    0.0000 C   0  0  0  0  0  0  0  0  0  0  0  0
    2.0000   -4.5600    0.0000 C   0  0  0  0  0  0  0  0  0  0  0  0
    3.7320   -6.5600    0.0000 C   0  0  0  0  0  0  0  0  0  0  0  0
    7.1962    6.0600    0.0000 H   0  0  0  0  0  0  0  0  0  0  0  0
    7.4082    3.8574    0.0000 H   0  0  0  0  0  0  0  0  0  0  0  0
    7.8067    4.5477    0.0000 H   0  0  0  0  0  0  0  0  0  0  0  0
    4.8535    4.5477    0.0000 H   0  0  0  0  0  0  0  0  0  0  0  0
    5.2520    3.8574    0.0000 H   0  0  0  0  0  0  0  0  0  0  0  0
    5.2520    6.0226    0.0000 H   0  0  0  0  0  0  0  0  0  0  0  0
    4.8535    5.3323    0.0000 H   0  0  0  0  0  0  0  0  0  0  0  0
    6.3301    6.5600    0.0000 H   0  0  0  0  0  0  0  0  0  0  0  0
    8.4607    6.4150    0.0000 H   0  0  0  0  0  0  0  0  0  0  0  0
    7.6636    6.4150    0.0000 H   0  0  0  0  0  0  0  0  0  0  0  0
    8.6182    4.9031    0.0000 H   0  0  0  0  0  0  0  0  0  0  0  0
    9.4651    5.1300    0.0000 H   0  0  0  0  0  0  0  0  0  0  0  0
    9.2382    5.9769    0.0000 H   0  0  0  0  0  0  0  0  0  0  0  0
    4.9272    2.7500    0.0000 H   0  0  0  0  0  0  0  0  0  0  0  0
    4.9272    1.1300    0.0000 H   0  0  0  0  0  0  0  0  0  0  0  0
    7.7331    1.1300    0.0000 H   0  0  0  0  0  0  0  0  0  0  0  0
    7.7331   -0.2500    0.0000 H   0  0  0  0  0  0  0  0  0  0  0  0
    7.7331   -1.8700    0.0000 H   0  0  0  0  0  0  0  0  0  0  0  0
    4.0611   -1.7500    0.0000 H   0  0  0  0  0  0  0  0  0  0  0  0
    3.1951   -3.2500    0.0000 H   0  0  0  0  0  0  0  0  0  0  0  0
    6.0010   -3.2500    0.0000 H   0  0  0  0  0  0  0  0  0  0  0  0
    5.7101   -6.0600    0.0000 H   0  0  0  0  0  0  0  0  0  0  0  0
    6.3301   -6.6800    0.0000 H   0  0  0  0  0  0  0  0  0  0  0  0
    6.9501   -6.0600    0.0000 H   0  0  0  0  0  0  0  0  0  0  0  0
    2.3100   -4.0231    0.0000 H   0  0  0  0  0  0  0  0  0  0  0  0
    1.4631   -4.2500    0.0000 H   0  0  0  0  0  0  0  0  0  0  0  0
    1.6900   -5.0969    0.0000 H   0  0  0  0  0  0  0  0  0  0  0  0
    3.4220   -6.0231    0.0000 H   0  0  0  0  0  0  0  0  0  0  0  0
    3.1951   -6.8700    0.0000 H   0  0  0  0  0  0  0  0  0  0  0  0
    4.0420   -7.0969    0.0000 H   0  0  0  0  0  0  0  0  0  0  0  0
  1 28  1  0  0  0  0
  1 31  1  0  0  0  0
  2 29  1  0  0  0  0
  2 32  1  0  0  0  0
  3 30  1  0  0  0  0
  3 33  1  0  0  0  0
  4 11  1  0  0  0  0
  4 12  1  0  0  0  0
  4 15  1  0  0  0  0
  5 10  1  0  0  0  0
  5 13  1  0  0  0  0
  5 41  1  0  0  0  0
  6 15  2  0  0  0  0
  6 20  1  0  0  0  0
  7 21  2  0  0  0  0
  7 23  1  0  0  0  0
  8 23  1  0  0  0  0
  8 25  1  0  0  0  0
  8 52  1  0  0  0  0
  9 23  2  0  0  0  0
  9 24  1  0  0  0  0
 10 11  1  0  0  0  0
 10 14  1  1  0  0  0
 10 34  1  0  0  0  0
 11 35  1  0  0  0  0
 11 36  1  0  0  0  0
 12 13  1  0  0  0  0
 12 37  1  0  0  0  0
 12 38  1  0  0  0  0
 13 39  1  0  0  0  0
 13 40  1  0  0  0  0
 14 16  1  0  0  0  0
 14 42  1  0  0  0  0
 14 43  1  0  0  0  0
 15 17  1  0  0  0  0
 16 44  1  0  0  0  0
 16 45  1  0  0  0  0
 16 46  1  0  0  0  0
 17 18  2  0  0  0  0
 17 47  1  0  0  0  0
 18 19  1  0  0  0  0
 18 48  1  0  0  0  0
 19 20  2  0  0  0  0
 19 21  1  0  0  0  0
 20 49  1  0  0  0  0
 21 22  1  0  0  0  0
 22 24  2  0  0  0  0
 22 50  1  0  0  0  0
 24 51  1  0  0  0  0
 25 26  2  0  0  0  0
 25 27  1  0  0  0  0
 26 29  1  0  0  0  0
 26 53  1  0  0  0  0
 27 28  2  0  0  0  0
 27 54  1  0  0  0  0
 28 30  1  0  0  0  0
 29 30  2  0  0  0  0
 31 55  1  0  0  0  0
 31 56  1  0  0  0  0
 31 57  1  0  0  0  0
 32 58  1  0  0  0  0
 32 59  1  0  0  0  0
 32 60  1  0  0  0  0
 33 61  1  0  0  0  0
 33 62  1  0  0  0  0
 33 63  1  0  0  0  0
M  END
> <PUBCHEM_COMPOUND_CID>
20579089

> <PUBCHEM_COMPOUND_CANONICALIZED>
1

> <PUBCHEM_CACTVS_COMPLEXITY>
572

> <PUBCHEM_CACTVS_HBOND_ACCEPTOR>
9

> <PUBCHEM_CACTVS_HBOND_DONOR>
2

> <PUBCHEM_CACTVS_ROTATABLE_BOND>
8

> <PUBCHEM_CACTVS_SUBSKEYS>
AAADceB7sAAAAAAAAAAAAAAAAAAAAAAAAAA8WLEAAAAAAAAB8AAAHgAQAAAADCzBngY/9pfIFACgAzZnZACCiCkxIqAJ2KA+7JiNb+LE+duUNCpv0B/K6Cew8A8OAEAACgAAQAAAgAAUAACAAAAAAAAAAA==

> <PUBCHEM_IUPAC_OPENEYE_NAME>
4-[6-[(3S)-3-ethylpiperazin-1-yl]-3-pyridyl]-N-(3,4,5-trimethoxyphenyl)pyrimidin-2-amine

> <PUBCHEM_IUPAC_CAS_NAME>
4-[6-[(3S)-3-ethyl-1-piperazinyl]-3-pyridinyl]-N-(3,4,5-trimethoxyphenyl)-2-pyrimidinamine

> <PUBCHEM_IUPAC_NAME_MARKUP>
4-[6-[(3<I>S</I>)-3-ethylpiperazin-1-yl]pyridin-3-yl]-<I>N</I>-(3,4,5-trimethoxyphenyl)pyrimidin-2-amine

> <PUBCHEM_IUPAC_NAME>
4-[6-[(3S)-3-ethylpiperazin-1-yl]pyridin-3-yl]-N-(3,4,5-trimethoxyphenyl)pyrimidin-2-amine

> <PUBCHEM_IUPAC_SYSTEMATIC_NAME>
4-[6-[(3S)-3-ethylpiperazin-1-yl]pyridin-3-yl]-N-(3,4,5-trimethoxyphenyl)pyrimidin-2-amine

> <PUBCHEM_IUPAC_TRADITIONAL_NAME>
[4-[6-[(3S)-3-ethylpiperazino]-3-pyridyl]pyrimidin-2-yl]-(3,4,5-trimethoxyphenyl)amine

> <PUBCHEM_IUPAC_INCHI>
InChI=1S/C24H30N6O3/c1-5-17-15-30(11-10-25-17)22-7-6-16(14-27-22)19-8-9-26-24(29-19)28-18-12-20(31-2)23(33-4)21(13-18)32-3/h6-9,12-14,17,25H,5,10-11,15H2,1-4H3,(H,26,28,29)/t17-/m0/s1

> <PUBCHEM_IUPAC_INCHIKEY>
YTOUFEQLXOWLSL-KRWDZBQOSA-N

> <PUBCHEM_XLOGP3_AA>
3.3

> <PUBCHEM_EXACT_MASS>
450.23793884

> <PUBCHEM_MOLECULAR_FORMULA>
C24H30N6O3

> <PUBCHEM_MOLECULAR_WEIGHT>
450.5

> <PUBCHEM_SMILES>
CC[C@H]1CN(CCN1)C2=NC=C(C=C2)C3=NC(=NC=C3)NC4=CC(=C(C(=C4)OC)OC)OC

> <PUBCHEM_OPENEYE_CAN_SMILES>
CCC1CN(CCN1)C2=NC=C(C=C2)C3=NC(=NC=C3)NC4=CC(=C(C(=C4)OC)OC)OC

> <PUBCHEM_OPENEYE_ISO_SMILES>
CC[C@H]1CN(CCN1)C2=NC=C(C=C2)C3=NC(=NC=C3)NC4=CC(=C(C(=C4)OC)OC)OC

> <PUBCHEM_CACTVS_TPSA>
93.7

> <PUBCHEM_MONOISOTOPIC_WEIGHT>
450.23793884

> <PUBCHEM_TOTAL_CHARGE>
0

> <PUBCHEM_HEAVY_ATOM_COUNT>
33

> <PUBCHEM_ATOM_DEF_STEREO_COUNT>
1

> <PUBCHEM_ATOM_UDEF_STEREO_COUNT>
0

> <PUBCHEM_BOND_DEF_STEREO_COUNT>
0

> <PUBCHEM_BOND_UDEF_STEREO_COUNT>
0

> <PUBCHEM_ISOTOPIC_ATOM_COUNT>
0

> <PUBCHEM_COMPONENT_COUNT>
1

> <PUBCHEM_CACTVS_TAUTO_COUNT>
-1

> <PUBCHEM_COORDINATE_TYPE>
1
5
255

> <PUBCHEM_BONDANNOTATIONS>
10  14  5
15  17  8
17  18  8
18  19  8
19  20  8
21  22  8
22  24  8
25  26  8
25  27  8
26  29  8
27  28  8
28  30  8
29  30  8
6  15  8
6  20  8
7  21  8
7  23  8
9  23  8
9  24  8

$$$$
