18451141
  -OEChem-03202502042D

 58 61  0     0  0  0  0  0  0999 V2000
    4.8122   -1.7130    0.0000 S   0  0  0  0  0  0  0  0  0  0  0  0
    7.7012    3.1605    0.0000 O   0  0  0  0  0  0  0  0  0  0  0  0
    2.1340   -0.4083    0.0000 N   0  0  0  0  0  0  0  0  0  0  0  0
    6.0549    3.6986    0.0000 N   0  0  0  0  0  0  0  0  0  0  0  0
    3.0000    1.0917    0.0000 N   0  0  0  0  0  0  0  0  0  0  0  0
    3.0000   -5.9083    0.0000 N   0  0  0  0  0  0  0  0  0  0  0  0
    7.3441    4.8553    0.0000 N   0  0  0  0  0  0  0  0  0  0  0  0
    3.8660   -0.4083    0.0000 C   0  0  0  0  0  0  0  0  0  0  0  0
    4.8122   -0.1035    0.0000 C   0  0  0  0  0  0  0  0  0  0  0  0
    3.8660   -1.4083    0.0000 C   0  0  0  0  0  0  0  0  0  0  0  0
    5.1229    0.8470    0.0000 C   0  0  0  0  0  0  0  0  0  0  0  0
    5.3958   -0.9083    0.0000 C   0  0  0  0  0  0  0  0  0  0  0  0
    3.0000   -1.9083    0.0000 C   0  0  0  0  0  0  0  0  0  0  0  0
    3.0000    0.0917    0.0000 C   0  0  0  0  0  0  0  0  0  0  0  0
    3.0000   -4.9083    0.0000 C   0  0  0  0  0  0  0  0  0  0  0  0
    4.4551    1.5913    0.0000 C   0  0  0  0  0  0  0  0  0  0  0  0
    6.1014    1.0532    0.0000 C   0  0  0  0  0  0  0  0  0  0  0  0
    5.7442    2.7480    0.0000 C   0  0  0  0  0  0  0  0  0  0  0  0
    2.1340   -1.4083    0.0000 C   0  0  0  0  0  0  0  0  0  0  0  0
    4.7657    2.5418    0.0000 C   0  0  0  0  0  0  0  0  0  0  0  0
    6.4121    2.0037    0.0000 C   0  0  0  0  0  0  0  0  0  0  0  0
    2.0000   -4.9083    0.0000 C   0  0  0  0  0  0  0  0  0  0  0  0
    4.0000   -4.9083    0.0000 C   0  0  0  0  0  0  0  0  0  0  0  0
    3.0000   -2.9083    0.0000 C   0  0  0  0  0  0  0  0  0  0  0  0
    3.0000   -3.9083    0.0000 C   0  0  0  0  0  0  0  0  0  0  0  0
    7.0334    3.9048    0.0000 C   0  0  0  0  0  0  0  0  0  0  0  0
    8.3226    5.0615    0.0000 C   0  0  0  0  0  0  0  0  0  0  0  0
    9.9689    4.5234    0.0000 C   0  0  0  0  0  0  0  0  0  0  0  0
    8.9904    4.3172    0.0000 C   0  0  0  0  0  0  0  0  0  0  0  0
    8.6332    6.0120    0.0000 C   0  0  0  0  0  0  0  0  0  0  0  0
   10.2796    5.4740    0.0000 C   0  0  0  0  0  0  0  0  0  0  0  0
    9.6117    6.2183    0.0000 C   0  0  0  0  0  0  0  0  0  0  0  0
   10.6368    3.7791    0.0000 C   0  0  0  0  0  0  0  0  0  0  0  0
    6.0158   -0.9083    0.0000 H   0  0  0  0  0  0  0  0  0  0  0  0
    3.8484    1.4634    0.0000 H   0  0  0  0  0  0  0  0  0  0  0  0
    6.5155    0.5917    0.0000 H   0  0  0  0  0  0  0  0  0  0  0  0
    1.5970   -1.7183    0.0000 H   0  0  0  0  0  0  0  0  0  0  0  0
    4.3517    3.0033    0.0000 H   0  0  0  0  0  0  0  0  0  0  0  0
    7.0188    2.1316    0.0000 H   0  0  0  0  0  0  0  0  0  0  0  0
    2.0000   -4.2883    0.0000 H   0  0  0  0  0  0  0  0  0  0  0  0
    1.3800   -4.9083    0.0000 H   0  0  0  0  0  0  0  0  0  0  0  0
    2.0000   -5.5282    0.0000 H   0  0  0  0  0  0  0  0  0  0  0  0
    4.0000   -5.5282    0.0000 H   0  0  0  0  0  0  0  0  0  0  0  0
    4.6200   -4.9083    0.0000 H   0  0  0  0  0  0  0  0  0  0  0  0
    4.0000   -4.2883    0.0000 H   0  0  0  0  0  0  0  0  0  0  0  0
    5.6408    4.1600    0.0000 H   0  0  0  0  0  0  0  0  0  0  0  0
    2.4631    1.4017    0.0000 H   0  0  0  0  0  0  0  0  0  0  0  0
    3.5369    1.4017    0.0000 H   0  0  0  0  0  0  0  0  0  0  0  0
    2.4631   -6.2183    0.0000 H   0  0  0  0  0  0  0  0  0  0  0  0
    3.5369   -6.2183    0.0000 H   0  0  0  0  0  0  0  0  0  0  0  0
    6.9300    5.3168    0.0000 H   0  0  0  0  0  0  0  0  0  0  0  0
    8.7978    3.7279    0.0000 H   0  0  0  0  0  0  0  0  0  0  0  0
    8.2192    6.4735    0.0000 H   0  0  0  0  0  0  0  0  0  0  0  0
   10.8863    5.6018    0.0000 H   0  0  0  0  0  0  0  0  0  0  0  0
    9.8044    6.8076    0.0000 H   0  0  0  0  0  0  0  0  0  0  0  0
   10.1753    3.3651    0.0000 H   0  0  0  0  0  0  0  0  0  0  0  0
   11.0508    3.3177    0.0000 H   0  0  0  0  0  0  0  0  0  0  0  0
   11.0982    4.1932    0.0000 H   0  0  0  0  0  0  0  0  0  0  0  0
  1 10  1  0  0  0  0
  1 12  1  0  0  0  0
  2 26  2  0  0  0  0
  3 14  2  0  0  0  0
  3 19  1  0  0  0  0
  4 18  1  0  0  0  0
  4 26  1  0  0  0  0
  4 46  1  0  0  0  0
  5 14  1  0  0  0  0
  5 47  1  0  0  0  0
  5 48  1  0  0  0  0
  6 15  1  0  0  0  0
  6 49  1  0  0  0  0
  6 50  1  0  0  0  0
  7 26  1  0  0  0  0
  7 27  1  0  0  0  0
  7 51  1  0  0  0  0
  8  9  1  0  0  0  0
  8 10  2  0  0  0  0
  8 14  1  0  0  0  0
  9 11  1  0  0  0  0
  9 12  2  0  0  0  0
 10 13  1  0  0  0  0
 11 16  2  0  0  0  0
 11 17  1  0  0  0  0
 12 34  1  0  0  0  0
 13 19  2  0  0  0  0
 13 24  1  0  0  0  0
 15 22  1  0  0  0  0
 15 23  1  0  0  0  0
 15 25  1  0  0  0  0
 16 20  1  0  0  0  0
 16 35  1  0  0  0  0
 17 21  2  0  0  0  0
 17 36  1  0  0  0  0
 18 20  2  0  0  0  0
 18 21  1  0  0  0  0
 19 37  1  0  0  0  0
 20 38  1  0  0  0  0
 21 39  1  0  0  0  0
 22 40  1  0  0  0  0
 22 41  1  0  0  0  0
 22 42  1  0  0  0  0
 23 43  1  0  0  0  0
 23 44  1  0  0  0  0
 23 45  1  0  0  0  0
 24 25  3  0  0  0  0
 27 29  1  0  0  0  0
 27 30  2  0  0  0  0
 28 29  2  0  0  0  0
 28 31  1  0  0  0  0
 28 33  1  0  0  0  0
 29 52  1  0  0  0  0
 30 32  1  0  0  0  0
 30 53  1  0  0  0  0
 31 32  2  0  0  0  0
 31 54  1  0  0  0  0
 32 55  1  0  0  0  0
 33 56  1  0  0  0  0
 33 57  1  0  0  0  0
 33 58  1  0  0  0  0
M  END
> <PUBCHEM_COMPOUND_CID>
18451141

> <PUBCHEM_COMPOUND_CANONICALIZED>
1

> <PUBCHEM_CACTVS_COMPLEXITY>
752

> <PUBCHEM_CACTVS_HBOND_ACCEPTOR>
5

> <PUBCHEM_CACTVS_HBOND_DONOR>
4

> <PUBCHEM_CACTVS_ROTATABLE_BOND>
5

> <PUBCHEM_CACTVS_SUBSKEYS>
AAADceB7oABAAAAAAAAAAAAAAAAAASAAAAA8YIAAAAAAAFgB/AAAHgQQAAAADIjFWgS/8dLIEAjsEjZndAiDgKkxCjAI2DAoZJiIIGLgkZGEIAxolALoyCcQgMAOiAAAQAAAAAAQAACAAAAAAAAAAAAAAA==

> <PUBCHEM_IUPAC_OPENEYE_NAME>
1-[4-[4-amino-7-(3-amino-3-methyl-but-1-ynyl)thieno[3,2-c]pyridin-3-yl]phenyl]-3-(m-tolyl)urea

> <PUBCHEM_IUPAC_CAS_NAME>
1-[4-[4-amino-7-(3-amino-3-methylbut-1-ynyl)-3-thieno[3,2-c]pyridinyl]phenyl]-3-(3-methylphenyl)urea

> <PUBCHEM_IUPAC_NAME_MARKUP>
1-[4-[4-amino-7-(3-amino-3-methylbut-1-ynyl)thieno[3,2-c]pyridin-3-yl]phenyl]-3-(3-methylphenyl)urea

> <PUBCHEM_IUPAC_NAME>
1-[4-[4-amino-7-(3-amino-3-methylbut-1-ynyl)thieno[3,2-c]pyridin-3-yl]phenyl]-3-(3-methylphenyl)urea

> <PUBCHEM_IUPAC_SYSTEMATIC_NAME>
1-[4-[4-azanyl-7-(3-azanyl-3-methyl-but-1-ynyl)thieno[3,2-c]pyridin-3-yl]phenyl]-3-(3-methylphenyl)urea

> <PUBCHEM_IUPAC_TRADITIONAL_NAME>
1-[4-[4-amino-7-(3-amino-3-methyl-but-1-ynyl)thieno[3,2-c]pyridin-3-yl]phenyl]-3-(m-tolyl)urea

> <PUBCHEM_IUPAC_INCHI>
InChI=1S/C26H25N5OS/c1-16-5-4-6-20(13-16)31-25(32)30-19-9-7-17(8-10-19)21-15-33-23-18(11-12-26(2,3)28)14-29-24(27)22(21)23/h4-10,13-15H,28H2,1-3H3,(H2,27,29)(H2,30,31,32)

> <PUBCHEM_IUPAC_INCHIKEY>
GSXRCPJTNIGKSZ-UHFFFAOYSA-N

> <PUBCHEM_XLOGP3_AA>
3.9

> <PUBCHEM_EXACT_MASS>
455.17798161

> <PUBCHEM_MOLECULAR_FORMULA>
C26H25N5OS

> <PUBCHEM_MOLECULAR_WEIGHT>
455.6

> <PUBCHEM_SMILES>
CC1=CC(=CC=C1)NC(=O)NC2=CC=C(C=C2)C3=CSC4=C3C(=NC=C4C#CC(C)(C)N)N

> <PUBCHEM_OPENEYE_CAN_SMILES>
CC1=CC(=CC=C1)NC(=O)NC2=CC=C(C=C2)C3=CSC4=C3C(=NC=C4C#CC(C)(C)N)N

> <PUBCHEM_OPENEYE_ISO_SMILES>
CC1=CC(=CC=C1)NC(=O)NC2=CC=C(C=C2)C3=CSC4=C3C(=NC=C4C#CC(C)(C)N)N

> <PUBCHEM_CACTVS_TPSA>
134

> <PUBCHEM_MONOISOTOPIC_WEIGHT>
455.17798161

> <PUBCHEM_TOTAL_CHARGE>
0

> <PUBCHEM_HEAVY_ATOM_COUNT>
33

> <PUBCHEM_ATOM_DEF_STEREO_COUNT>
0

> <PUBCHEM_ATOM_UDEF_STEREO_COUNT>
0

> <PUBCHEM_BOND_DEF_STEREO_COUNT>
0

> <PUBCHEM_BOND_UDEF_STEREO_COUNT>
0

> <PUBCHEM_ISOTOPIC_ATOM_COUNT>
0

> <PUBCHEM_COMPONENT_COUNT>
1

> <PUBCHEM_CACTVS_TAUTO_COUNT>
-1

> <PUBCHEM_COORDINATE_TYPE>
1
5
255

> <PUBCHEM_BONDANNOTATIONS>
1  10  8
1  12  8
10  13  8
11  16  8
11  17  8
13  19  8
16  20  8
17  21  8
18  20  8
18  21  8
27  29  8
27  30  8
28  29  8
28  31  8
3  14  8
3  19  8
30  32  8
31  32  8
8  10  8
8  14  8
8  9  8
9  12  8

$$$$
