3038489
  -OEChem-03202502102D

 63 63  0     0  0  0  0  0  0999 V2000
   12.3923    0.6550    0.0000 O   0  0  0  0  0  0  0  0  0  0  0  0
   14.1244    1.6550    0.0000 N   0  0  0  0  0  0  0  0  0  0  0  0
   15.8564   -1.3450    0.0000 N   0  0  0  0  0  0  0  0  0  0  0  0
   14.9904    3.1550    0.0000 N   0  0  0  0  0  0  0  0  0  0  0  0
   15.8564    1.6550    0.0000 N   0  0  0  0  0  0  0  0  0  0  0  0
   16.7224   -2.8450    0.0000 N   0  0  0  0  0  0  0  0  0  0  0  0
   14.9904   -2.8450    0.0000 N   0  0  0  0  0  0  0  0  0  0  0  0
    7.1962    0.6550    0.0000 C   0  0  0  0  0  0  0  0  0  0  0  0
    6.3301    0.1550    0.0000 C   0  0  0  0  0  0  0  0  0  0  0  0
    8.0622    0.1550    0.0000 C   0  0  0  0  0  0  0  0  0  0  0  0
    5.4641    0.6550    0.0000 C   0  0  0  0  0  0  0  0  0  0  0  0
    8.9282    0.6550    0.0000 C   0  0  0  0  0  0  0  0  0  0  0  0
    4.5981    0.1550    0.0000 C   0  0  0  0  0  0  0  0  0  0  0  0
    9.7942    0.1550    0.0000 C   0  0  0  0  0  0  0  0  0  0  0  0
    3.7320    0.6550    0.0000 C   0  0  0  0  0  0  0  0  0  0  0  0
   10.6603    0.6550    0.0000 C   0  0  0  0  0  0  0  0  0  0  0  0
    2.8660    0.1550    0.0000 C   0  0  0  0  0  0  0  0  0  0  0  0
   11.5263    0.1550    0.0000 C   0  0  0  0  0  0  0  0  0  0  0  0
    2.0000    0.6550    0.0000 C   0  0  0  0  0  0  0  0  0  0  0  0
   13.2583    0.1550    0.0000 C   0  0  0  0  0  0  0  0  0  0  0  0
   14.1244    0.6550    0.0000 C   0  0  0  0  0  0  0  0  0  0  0  0
   13.2583   -0.8450    0.0000 C   0  0  0  0  0  0  0  0  0  0  0  0
   14.9904    0.1550    0.0000 C   0  0  0  0  0  0  0  0  0  0  0  0
   14.1244   -1.3450    0.0000 C   0  0  0  0  0  0  0  0  0  0  0  0
   14.9904   -0.8450    0.0000 C   0  0  0  0  0  0  0  0  0  0  0  0
   14.9904    2.1550    0.0000 C   0  0  0  0  0  0  0  0  0  0  0  0
   15.8564   -2.3450    0.0000 C   0  0  0  0  0  0  0  0  0  0  0  0
    7.5947    1.1300    0.0000 H   0  0  0  0  0  0  0  0  0  0  0  0
    6.7976    1.1300    0.0000 H   0  0  0  0  0  0  0  0  0  0  0  0
    5.9316   -0.3199    0.0000 H   0  0  0  0  0  0  0  0  0  0  0  0
    6.7287   -0.3199    0.0000 H   0  0  0  0  0  0  0  0  0  0  0  0
    7.6636   -0.3199    0.0000 H   0  0  0  0  0  0  0  0  0  0  0  0
    8.4607   -0.3199    0.0000 H   0  0  0  0  0  0  0  0  0  0  0  0
    5.8626    1.1300    0.0000 H   0  0  0  0  0  0  0  0  0  0  0  0
    5.0656    1.1300    0.0000 H   0  0  0  0  0  0  0  0  0  0  0  0
    9.3267    1.1300    0.0000 H   0  0  0  0  0  0  0  0  0  0  0  0
    8.5297    1.1300    0.0000 H   0  0  0  0  0  0  0  0  0  0  0  0
    4.1996   -0.3199    0.0000 H   0  0  0  0  0  0  0  0  0  0  0  0
    4.9966   -0.3199    0.0000 H   0  0  0  0  0  0  0  0  0  0  0  0
    9.3957   -0.3199    0.0000 H   0  0  0  0  0  0  0  0  0  0  0  0
   10.1928   -0.3199    0.0000 H   0  0  0  0  0  0  0  0  0  0  0  0
    4.1306    1.1300    0.0000 H   0  0  0  0  0  0  0  0  0  0  0  0
    3.3335    1.1300    0.0000 H   0  0  0  0  0  0  0  0  0  0  0  0
   11.0588    1.1300    0.0000 H   0  0  0  0  0  0  0  0  0  0  0  0
   10.2617    1.1300    0.0000 H   0  0  0  0  0  0  0  0  0  0  0  0
    2.4675   -0.3199    0.0000 H   0  0  0  0  0  0  0  0  0  0  0  0
    3.2646   -0.3199    0.0000 H   0  0  0  0  0  0  0  0  0  0  0  0
   11.1278   -0.3199    0.0000 H   0  0  0  0  0  0  0  0  0  0  0  0
   11.9248   -0.3199    0.0000 H   0  0  0  0  0  0  0  0  0  0  0  0
    2.3100    1.1919    0.0000 H   0  0  0  0  0  0  0  0  0  0  0  0
    1.4631    0.9650    0.0000 H   0  0  0  0  0  0  0  0  0  0  0  0
    1.6900    0.1181    0.0000 H   0  0  0  0  0  0  0  0  0  0  0  0
   12.7214   -1.1550    0.0000 H   0  0  0  0  0  0  0  0  0  0  0  0
   15.5273    0.4650    0.0000 H   0  0  0  0  0  0  0  0  0  0  0  0
   14.1244   -1.9650    0.0000 H   0  0  0  0  0  0  0  0  0  0  0  0
   15.5273    3.4650    0.0000 H   0  0  0  0  0  0  0  0  0  0  0  0
   14.4534    3.4650    0.0000 H   0  0  0  0  0  0  0  0  0  0  0  0
   16.3933    1.9650    0.0000 H   0  0  0  0  0  0  0  0  0  0  0  0
   15.8564    1.0350    0.0000 H   0  0  0  0  0  0  0  0  0  0  0  0
   16.7224   -3.4650    0.0000 H   0  0  0  0  0  0  0  0  0  0  0  0
   17.2594   -2.5350    0.0000 H   0  0  0  0  0  0  0  0  0  0  0  0
   14.9904   -3.4650    0.0000 H   0  0  0  0  0  0  0  0  0  0  0  0
   14.4534   -2.5350    0.0000 H   0  0  0  0  0  0  0  0  0  0  0  0
  1 18  1  0  0  0  0
  1 20  1  0  0  0  0
  2 21  1  0  0  0  0
  2 26  2  0  0  0  0
  3 25  1  0  0  0  0
  3 27  2  0  0  0  0
  4 26  1  0  0  0  0
  4 56  1  0  0  0  0
  4 57  1  0  0  0  0
  5 26  1  0  0  0  0
  5 58  1  0  0  0  0
  5 59  1  0  0  0  0
  6 27  1  0  0  0  0
  6 60  1  0  0  0  0
  6 61  1  0  0  0  0
  7 27  1  0  0  0  0
  7 62  1  0  0  0  0
  7 63  1  0  0  0  0
  8  9  1  0  0  0  0
  8 10  1  0  0  0  0
  8 28  1  0  0  0  0
  8 29  1  0  0  0  0
  9 11  1  0  0  0  0
  9 30  1  0  0  0  0
  9 31  1  0  0  0  0
 10 12  1  0  0  0  0
 10 32  1  0  0  0  0
 10 33  1  0  0  0  0
 11 13  1  0  0  0  0
 11 34  1  0  0  0  0
 11 35  1  0  0  0  0
 12 14  1  0  0  0  0
 12 36  1  0  0  0  0
 12 37  1  0  0  0  0
 13 15  1  0  0  0  0
 13 38  1  0  0  0  0
 13 39  1  0  0  0  0
 14 16  1  0  0  0  0
 14 40  1  0  0  0  0
 14 41  1  0  0  0  0
 15 17  1  0  0  0  0
 15 42  1  0  0  0  0
 15 43  1  0  0  0  0
 16 18  1  0  0  0  0
 16 44  1  0  0  0  0
 16 45  1  0  0  0  0
 17 19  1  0  0  0  0
 17 46  1  0  0  0  0
 17 47  1  0  0  0  0
 18 48  1  0  0  0  0
 18 49  1  0  0  0  0
 19 50  1  0  0  0  0
 19 51  1  0  0  0  0
 19 52  1  0  0  0  0
 20 21  2  0  0  0  0
 20 22  1  0  0  0  0
 21 23  1  0  0  0  0
 22 24  2  0  0  0  0
 22 53  1  0  0  0  0
 23 25  2  0  0  0  0
 23 54  1  0  0  0  0
 24 25  1  0  0  0  0
 24 55  1  0  0  0  0
M  END
> <PUBCHEM_COMPOUND_CID>
3038489

> <PUBCHEM_COMPOUND_CANONICALIZED>
1

> <PUBCHEM_CACTVS_COMPLEXITY>
432

> <PUBCHEM_CACTVS_HBOND_ACCEPTOR>
3

> <PUBCHEM_CACTVS_HBOND_DONOR>
4

> <PUBCHEM_CACTVS_ROTATABLE_BOND>
14

> <PUBCHEM_CACTVS_SUBSKEYS>
AAADcfB7oAAAAAAAAAAAAAAAAAAAAAAAAAAwAAAAAAAAAAABAAAAHgAQAAAACAyhkAIzxoJABACgACRCZACCCAEgIgAIiAAHbIgOJiKE8duDOCDkwBEI6AewwKAAAEAAAAQAEAAAgAAACAAgAAAAAAAAAA==

> <PUBCHEM_IUPAC_OPENEYE_NAME>
2-(2-dodecoxy-5-guanidino-phenyl)guanidine

> <PUBCHEM_IUPAC_CAS_NAME>
2-[3-(diaminomethylideneamino)-4-dodecoxyphenyl]guanidine

> <PUBCHEM_IUPAC_NAME_MARKUP>
2-[3-(diaminomethylideneamino)-4-dodecoxyphenyl]guanidine

> <PUBCHEM_IUPAC_NAME>
2-[3-(diaminomethylideneamino)-4-dodecoxyphenyl]guanidine

> <PUBCHEM_IUPAC_SYSTEMATIC_NAME>
2-[3-[bis(azanyl)methylideneamino]-4-dodecoxy-phenyl]guanidine

> <PUBCHEM_IUPAC_TRADITIONAL_NAME>
2-(3-guanidino-4-lauryloxy-phenyl)guanidine

> <PUBCHEM_IUPAC_INCHI>
InChI=1S/C20H36N6O/c1-2-3-4-5-6-7-8-9-10-11-14-27-18-13-12-16(25-19(21)22)15-17(18)26-20(23)24/h12-13,15H,2-11,14H2,1H3,(H4,21,22,25)(H4,23,24,26)

> <PUBCHEM_IUPAC_INCHIKEY>
QMMMGQKKOKYDMN-UHFFFAOYSA-N

> <PUBCHEM_XLOGP3_AA>
4.4

> <PUBCHEM_EXACT_MASS>
376.29505979

> <PUBCHEM_MOLECULAR_FORMULA>
C20H36N6O

> <PUBCHEM_MOLECULAR_WEIGHT>
376.5

> <PUBCHEM_SMILES>
CCCCCCCCCCCCOC1=C(C=C(C=C1)N=C(N)N)N=C(N)N

> <PUBCHEM_OPENEYE_CAN_SMILES>
CCCCCCCCCCCCOC1=C(C=C(C=C1)N=C(N)N)N=C(N)N

> <PUBCHEM_OPENEYE_ISO_SMILES>
CCCCCCCCCCCCOC1=C(C=C(C=C1)N=C(N)N)N=C(N)N

> <PUBCHEM_CACTVS_TPSA>
138

> <PUBCHEM_MONOISOTOPIC_WEIGHT>
376.29505979

> <PUBCHEM_TOTAL_CHARGE>
0

> <PUBCHEM_HEAVY_ATOM_COUNT>
27

> <PUBCHEM_ATOM_DEF_STEREO_COUNT>
0

> <PUBCHEM_ATOM_UDEF_STEREO_COUNT>
0

> <PUBCHEM_BOND_DEF_STEREO_COUNT>
0

> <PUBCHEM_BOND_UDEF_STEREO_COUNT>
0

> <PUBCHEM_ISOTOPIC_ATOM_COUNT>
0

> <PUBCHEM_COMPONENT_COUNT>
1

> <PUBCHEM_CACTVS_TAUTO_COUNT>
-1

> <PUBCHEM_COORDINATE_TYPE>
1
5
255

> <PUBCHEM_BONDANNOTATIONS>
20  21  8
20  22  8
21  23  8
22  24  8
23  25  8
24  25  8

$$$$
