53232451
  -OEChem-03202500302D

 41 43  0     1  0  0  0  0  0999 V2000
    9.7942    2.4239    0.0000 F   0  0  0  0  0  0  0  0  0  0  0  0
    2.0000   -1.0761    0.0000 F   0  0  0  0  0  0  0  0  0  0  0  0
    6.3301    0.4239    0.0000 N   0  0  0  0  0  0  0  0  0  0  0  0
    8.0622    0.4239    0.0000 N   0  0  0  0  0  0  0  0  0  0  0  0
    9.7942    0.4239    0.0000 N   0  0  0  0  0  0  0  0  0  0  0  0
    4.5981   -0.5761    0.0000 N   0  0  0  0  0  0  0  0  0  0  0  0
    9.2942   -2.1149    0.0000 N   0  0  0  0  0  0  0  0  0  0  0  0
    8.9852   -1.1639    0.0000 N   0  0  0  0  0  0  0  0  0  0  0  0
    5.4641    2.9239    0.0000 N   0  0  0  0  0  0  0  0  0  0  0  0
    5.4641    0.9239    0.0000 C   0  0  2  0  0  0  0  0  0  0  0  0
    4.5981    0.4239    0.0000 C   0  0  0  0  0  0  0  0  0  0  0  0
    5.4641    1.9239    0.0000 C   0  0  0  0  0  0  0  0  0  0  0  0
    7.1962    0.9239    0.0000 C   0  0  0  0  0  0  0  0  0  0  0  0
    7.1962    1.9239    0.0000 C   0  0  0  0  0  0  0  0  0  0  0  0
    8.9282    0.9239    0.0000 C   0  0  0  0  0  0  0  0  0  0  0  0
    3.7320    0.9239    0.0000 C   0  0  0  0  0  0  0  0  0  0  0  0
    8.0622    2.4239    0.0000 C   0  0  0  0  0  0  0  0  0  0  0  0
    8.9282    1.9239    0.0000 C   0  0  0  0  0  0  0  0  0  0  0  0
    9.7942   -0.5761    0.0000 C   0  0  0  0  0  0  0  0  0  0  0  0
   10.2942   -2.1149    0.0000 C   0  0  0  0  0  0  0  0  0  0  0  0
   10.6032   -1.1639    0.0000 C   0  0  0  0  0  0  0  0  0  0  0  0
    2.8660    0.4239    0.0000 C   0  0  0  0  0  0  0  0  0  0  0  0
    3.7320   -1.0761    0.0000 C   0  0  0  0  0  0  0  0  0  0  0  0
    2.8660   -0.5761    0.0000 C   0  0  0  0  0  0  0  0  0  0  0  0
   10.8820   -2.9239    0.0000 C   0  0  0  0  0  0  0  0  0  0  0  0
    6.3301    2.4239    0.0000 C   0  0  0  0  0  0  0  0  0  0  0  0
    5.4641    0.3039    0.0000 H   0  0  0  0  0  0  0  0  0  0  0  0
    6.3301   -0.1961    0.0000 H   0  0  0  0  0  0  0  0  0  0  0  0
    6.0841    1.9239    0.0000 H   0  0  0  0  0  0  0  0  0  0  0  0
    5.4641    2.5439    0.0000 H   0  0  0  0  0  0  0  0  0  0  0  0
    4.8441    1.9239    0.0000 H   0  0  0  0  0  0  0  0  0  0  0  0
    3.7320    1.5439    0.0000 H   0  0  0  0  0  0  0  0  0  0  0  0
   10.3312    0.7339    0.0000 H   0  0  0  0  0  0  0  0  0  0  0  0
    8.0622    3.0439    0.0000 H   0  0  0  0  0  0  0  0  0  0  0  0
   11.1929   -0.9723    0.0000 H   0  0  0  0  0  0  0  0  0  0  0  0
    2.3291    0.7339    0.0000 H   0  0  0  0  0  0  0  0  0  0  0  0
    3.7320   -1.6961    0.0000 H   0  0  0  0  0  0  0  0  0  0  0  0
    8.9298   -2.6165    0.0000 H   0  0  0  0  0  0  0  0  0  0  0  0
   10.3804   -3.2884    0.0000 H   0  0  0  0  0  0  0  0  0  0  0  0
   11.2464   -3.4255    0.0000 H   0  0  0  0  0  0  0  0  0  0  0  0
   11.3836   -2.5595    0.0000 H   0  0  0  0  0  0  0  0  0  0  0  0
  1 18  1  0  0  0  0
  2 24  1  0  0  0  0
 10  3  1  6  0  0  0
  3 13  1  0  0  0  0
  3 28  1  0  0  0  0
  4 13  2  0  0  0  0
  4 15  1  0  0  0  0
  5 15  1  0  0  0  0
  5 19  1  0  0  0  0
  5 33  1  0  0  0  0
  6 11  2  0  0  0  0
  6 23  1  0  0  0  0
  7  8  1  0  0  0  0
  7 20  1  0  0  0  0
  7 38  1  0  0  0  0
  8 19  2  0  0  0  0
  9 26  3  0  0  0  0
 10 11  1  0  0  0  0
 10 12  1  0  0  0  0
 10 27  1  0  0  0  0
 11 16  1  0  0  0  0
 12 29  1  0  0  0  0
 12 30  1  0  0  0  0
 12 31  1  0  0  0  0
 13 14  1  0  0  0  0
 14 17  2  0  0  0  0
 14 26  1  0  0  0  0
 15 18  2  0  0  0  0
 16 22  2  0  0  0  0
 16 32  1  0  0  0  0
 17 18  1  0  0  0  0
 17 34  1  0  0  0  0
 19 21  1  0  0  0  0
 20 21  2  0  0  0  0
 20 25  1  0  0  0  0
 21 35  1  0  0  0  0
 22 24  1  0  0  0  0
 22 36  1  0  0  0  0
 23 24  2  0  0  0  0
 23 37  1  0  0  0  0
 25 39  1  0  0  0  0
 25 40  1  0  0  0  0
 25 41  1  0  0  0  0
M  END
> <PUBCHEM_COMPOUND_CID>
53232451

> <PUBCHEM_COMPOUND_CANONICALIZED>
1

> <PUBCHEM_CACTVS_COMPLEXITY>
513

> <PUBCHEM_CACTVS_HBOND_ACCEPTOR>
8

> <PUBCHEM_CACTVS_HBOND_DONOR>
3

> <PUBCHEM_CACTVS_ROTATABLE_BOND>
5

> <PUBCHEM_CACTVS_SUBSKEYS>
AAADccB7gYAAAAAAAAAAAAAAAAAAAWAAAAAsWAAAAAAAAAAB+AAAHQAYAAAADCjBHgw/sJLrEACyBzZnZACyhCsxAiAd+aA4ZJiI4OLA2dGUpAh4mALIyC8QgAAMAAAAAAAAAAAAAAAAAAAAAAAAAAAAAA==

> <PUBCHEM_IUPAC_OPENEYE_NAME>
5-fluoro-2-[[(1S)-1-(5-fluoro-2-pyridyl)ethyl]amino]-6-[(5-methyl-1H-pyrazol-3-yl)amino]pyridine-3-carbonitrile

> <PUBCHEM_IUPAC_CAS_NAME>
5-fluoro-2-[[(1S)-1-(5-fluoro-2-pyridinyl)ethyl]amino]-6-[(5-methyl-1H-pyrazol-3-yl)amino]-3-pyridinecarbonitrile

> <PUBCHEM_IUPAC_NAME_MARKUP>
5-fluoro-2-[[(1<I>S</I>)-1-(5-fluoropyridin-2-yl)ethyl]amino]-6-[(5-methyl-1<I>H</I>-pyrazol-3-yl)amino]pyridine-3-carbonitrile

> <PUBCHEM_IUPAC_NAME>
5-fluoro-2-[[(1S)-1-(5-fluoropyridin-2-yl)ethyl]amino]-6-[(5-methyl-1H-pyrazol-3-yl)amino]pyridine-3-carbonitrile

> <PUBCHEM_IUPAC_SYSTEMATIC_NAME>
5-fluoranyl-2-[[(1S)-1-(5-fluoranylpyridin-2-yl)ethyl]amino]-6-[(5-methyl-1H-pyrazol-3-yl)amino]pyridine-3-carbonitrile

> <PUBCHEM_IUPAC_TRADITIONAL_NAME>
5-fluoro-2-[[(1S)-1-(5-fluoro-2-pyridyl)ethyl]amino]-6-[(5-methyl-1H-pyrazol-3-yl)amino]nicotinonitrile

> <PUBCHEM_IUPAC_INCHI>
InChI=1S/C17H15F2N7/c1-9-5-15(26-25-9)23-17-13(19)6-11(7-20)16(24-17)22-10(2)14-4-3-12(18)8-21-14/h3-6,8,10H,1-2H3,(H3,22,23,24,25,26)/t10-/m0/s1

> <PUBCHEM_IUPAC_INCHIKEY>
HIHOEGPXVVKJPP-JTQLQIEISA-N

> <PUBCHEM_XLOGP3_AA>
3.4

> <PUBCHEM_EXACT_MASS>
355.13569983

> <PUBCHEM_MOLECULAR_FORMULA>
C17H15F2N7

> <PUBCHEM_MOLECULAR_WEIGHT>
355.3

> <PUBCHEM_SMILES>
CC1=CC(=NN1)NC2=C(C=C(C(=N2)N[C@@H](C)C3=NC=C(C=C3)F)C#N)F

> <PUBCHEM_OPENEYE_CAN_SMILES>
CC1=CC(=NN1)NC2=C(C=C(C(=N2)NC(C)C3=NC=C(C=C3)F)C#N)F

> <PUBCHEM_OPENEYE_ISO_SMILES>
CC1=CC(=NN1)NC2=C(C=C(C(=N2)N[C@@H](C)C3=NC=C(C=C3)F)C#N)F

> <PUBCHEM_CACTVS_TPSA>
102

> <PUBCHEM_MONOISOTOPIC_WEIGHT>
355.13569983

> <PUBCHEM_TOTAL_CHARGE>
0

> <PUBCHEM_HEAVY_ATOM_COUNT>
26

> <PUBCHEM_ATOM_DEF_STEREO_COUNT>
1

> <PUBCHEM_ATOM_UDEF_STEREO_COUNT>
0

> <PUBCHEM_BOND_DEF_STEREO_COUNT>
0

> <PUBCHEM_BOND_UDEF_STEREO_COUNT>
0

> <PUBCHEM_ISOTOPIC_ATOM_COUNT>
0

> <PUBCHEM_COMPONENT_COUNT>
1

> <PUBCHEM_CACTVS_TAUTO_COUNT>
-1

> <PUBCHEM_COORDINATE_TYPE>
1
5
255

> <PUBCHEM_BONDANNOTATIONS>
11  16  8
13  14  8
14  17  8
15  18  8
16  22  8
17  18  8
19  21  8
20  21  8
22  24  8
23  24  8
10  3  6
4  13  8
4  15  8
6  11  8
6  23  8
7  20  8
7  8  8
8  19  8

$$$$
