11497983
  -OEChem-03202506132D

 72 75  0     1  0  0  0  0  0999 V2000
    3.4022    3.2212    0.0000 P   0  0  0  0  0  0  0  0  0  0  0  0
   19.2481   -4.7112    0.0000 F   0  0  0  0  0  0  0  0  0  0  0  0
   10.3304    3.1945    0.0000 O   0  0  0  0  0  0  0  0  0  0  0  0
    4.2663    2.7178    0.0000 O   0  0  0  0  0  0  0  0  0  0  0  0
    2.5381    3.7245    0.0000 O   0  0  0  0  0  0  0  0  0  0  0  0
    2.8989    2.3571    0.0000 O   0  0  0  0  0  0  0  0  0  0  0  0
    3.9056    4.0853    0.0000 O   0  0  0  0  0  0  0  0  0  0  0  0
   17.4848   -2.2841    0.0000 O   0  0  0  0  0  0  0  0  0  0  0  0
    6.8663    3.2078    0.0000 N   0  0  3  0  0  0  0  0  0  0  0  0
   13.8605    0.1703    0.0000 N   0  0  0  0  0  0  0  0  0  0  0  0
   13.8605    3.1703    0.0000 N   0  0  0  0  0  0  0  0  0  0  0  0
   14.7265    1.6703    0.0000 N   0  0  0  0  0  0  0  0  0  0  0  0
   15.8092   -1.5321    0.0000 N   0  0  0  0  0  0  0  0  0  0  0  0
   14.8310   -1.3242    0.0000 N   0  0  0  0  0  0  0  0  0  0  0  0
   18.8860   -1.2660    0.0000 N   0  0  0  0  0  0  0  0  0  0  0  0
    7.7304    2.7045    0.0000 C   0  0  0  0  0  0  0  0  0  0  0  0
    8.5983    3.2012    0.0000 C   0  0  0  0  0  0  0  0  0  0  0  0
    5.9984    2.7112    0.0000 C   0  0  0  0  0  0  0  0  0  0  0  0
    6.8702    4.2078    0.0000 C   0  0  0  0  0  0  0  0  0  0  0  0
    9.4624    2.6978    0.0000 C   0  0  0  0  0  0  0  0  0  0  0  0
    5.1343    3.2145    0.0000 C   0  0  0  0  0  0  0  0  0  0  0  0
    6.0061    4.7112    0.0000 C   0  0  0  0  0  0  0  0  0  0  0  0
   11.1945    2.6912    0.0000 C   0  0  0  0  0  0  0  0  0  0  0  0
   12.9945    1.6703    0.0000 C   0  0  0  0  0  0  0  0  0  0  0  0
   12.1005    3.2050    0.0000 C   0  0  0  0  0  0  0  0  0  0  0  0
   12.9945    2.6703    0.0000 C   0  0  0  0  0  0  0  0  0  0  0  0
   11.1945    1.6495    0.0000 C   0  0  0  0  0  0  0  0  0  0  0  0
   12.1005    1.1357    0.0000 C   0  0  0  0  0  0  0  0  0  0  0  0
   13.8605    1.1703    0.0000 C   0  0  0  0  0  0  0  0  0  0  0  0
   14.7265   -0.3297    0.0000 C   0  0  0  0  0  0  0  0  0  0  0  0
   16.3092   -0.6661    0.0000 C   0  0  0  0  0  0  0  0  0  0  0  0
   15.6401    0.0771    0.0000 C   0  0  0  0  0  0  0  0  0  0  0  0
   17.3037   -0.5615    0.0000 C   0  0  0  0  0  0  0  0  0  0  0  0
   14.7265    2.6703    0.0000 C   0  0  0  0  0  0  0  0  0  0  0  0
   17.8915   -1.3706    0.0000 C   0  0  0  0  0  0  0  0  0  0  0  0
   19.4738   -2.0750    0.0000 C   0  0  0  0  0  0  0  0  0  0  0  0
   19.0671   -2.9886    0.0000 C   0  0  0  0  0  0  0  0  0  0  0  0
   20.4683   -1.9705    0.0000 C   0  0  0  0  0  0  0  0  0  0  0  0
   19.6549   -3.7976    0.0000 C   0  0  0  0  0  0  0  0  0  0  0  0
   21.0561   -2.7795    0.0000 C   0  0  0  0  0  0  0  0  0  0  0  0
   20.6494   -3.6931    0.0000 C   0  0  0  0  0  0  0  0  0  0  0  0
    7.3300    2.2311    0.0000 H   0  0  0  0  0  0  0  0  0  0  0  0
    8.1271    2.2280    0.0000 H   0  0  0  0  0  0  0  0  0  0  0  0
    8.9987    3.6746    0.0000 H   0  0  0  0  0  0  0  0  0  0  0  0
    8.2016    3.6776    0.0000 H   0  0  0  0  0  0  0  0  0  0  0  0
    5.5980    2.2378    0.0000 H   0  0  0  0  0  0  0  0  0  0  0  0
    6.3950    2.2347    0.0000 H   0  0  0  0  0  0  0  0  0  0  0  0
    7.4803    4.0978    0.0000 H   0  0  0  0  0  0  0  0  0  0  0  0
    7.0844    4.7896    0.0000 H   0  0  0  0  0  0  0  0  0  0  0  0
    9.0621    2.2244    0.0000 H   0  0  0  0  0  0  0  0  0  0  0  0
    9.8591    2.2213    0.0000 H   0  0  0  0  0  0  0  0  0  0  0  0
    5.5346    3.6879    0.0000 H   0  0  0  0  0  0  0  0  0  0  0  0
    4.7376    3.6910    0.0000 H   0  0  0  0  0  0  0  0  0  0  0  0
    6.3181    5.2469    0.0000 H   0  0  0  0  0  0  0  0  0  0  0  0
    5.4703    5.0232    0.0000 H   0  0  0  0  0  0  0  0  0  0  0  0
    5.6940    4.1754    0.0000 H   0  0  0  0  0  0  0  0  0  0  0  0
   12.1077    3.8250    0.0000 H   0  0  0  0  0  0  0  0  0  0  0  0
   10.6587    1.3374    0.0000 H   0  0  0  0  0  0  0  0  0  0  0  0
   12.1077    0.5157    0.0000 H   0  0  0  0  0  0  0  0  0  0  0  0
   13.3236   -0.1397    0.0000 H   0  0  0  0  0  0  0  0  0  0  0  0
   15.7690    0.6835    0.0000 H   0  0  0  0  0  0  0  0  0  0  0  0
   17.8610   -0.2898    0.0000 H   0  0  0  0  0  0  0  0  0  0  0  0
   17.1328    0.0344    0.0000 H   0  0  0  0  0  0  0  0  0  0  0  0
   16.0614   -2.0985    0.0000 H   0  0  0  0  0  0  0  0  0  0  0  0
   15.2635    2.9803    0.0000 H   0  0  0  0  0  0  0  0  0  0  0  0
    2.0000    3.4166    0.0000 H   0  0  0  0  0  0  0  0  0  0  0  0
    3.2068    1.8190    0.0000 H   0  0  0  0  0  0  0  0  0  0  0  0
   19.1382   -0.6996    0.0000 H   0  0  0  0  0  0  0  0  0  0  0  0
   18.4505   -3.0534    0.0000 H   0  0  0  0  0  0  0  0  0  0  0  0
   20.7205   -1.4041    0.0000 H   0  0  0  0  0  0  0  0  0  0  0  0
   21.6727   -2.7147    0.0000 H   0  0  0  0  0  0  0  0  0  0  0  0
   21.0138   -4.1947    0.0000 H   0  0  0  0  0  0  0  0  0  0  0  0
  1  4  1  0  0  0  0
  1  5  1  0  0  0  0
  1  6  1  0  0  0  0
  1  7  2  0  0  0  0
  2 39  1  0  0  0  0
  3 20  1  0  0  0  0
  3 23  1  0  0  0  0
  4 21  1  0  0  0  0
  5 66  1  0  0  0  0
  6 67  1  0  0  0  0
  8 35  2  0  0  0  0
  9 16  1  0  0  0  0
  9 18  1  0  0  0  0
  9 19  1  0  0  0  0
 10 29  1  0  0  0  0
 10 30  1  0  0  0  0
 10 60  1  0  0  0  0
 11 26  1  0  0  0  0
 11 34  2  0  0  0  0
 12 29  2  0  0  0  0
 12 34  1  0  0  0  0
 13 14  1  0  0  0  0
 13 31  1  0  0  0  0
 13 64  1  0  0  0  0
 14 30  2  0  0  0  0
 15 35  1  0  0  0  0
 15 36  1  0  0  0  0
 15 68  1  0  0  0  0
 16 17  1  0  0  0  0
 16 42  1  0  0  0  0
 16 43  1  0  0  0  0
 17 20  1  0  0  0  0
 17 44  1  0  0  0  0
 17 45  1  0  0  0  0
 18 21  1  0  0  0  0
 18 46  1  0  0  0  0
 18 47  1  0  0  0  0
 19 22  1  0  0  0  0
 19 48  1  0  0  0  0
 19 49  1  0  0  0  0
 20 50  1  0  0  0  0
 20 51  1  0  0  0  0
 21 52  1  0  0  0  0
 21 53  1  0  0  0  0
 22 54  1  0  0  0  0
 22 55  1  0  0  0  0
 22 56  1  0  0  0  0
 23 25  2  0  0  0  0
 23 27  1  0  0  0  0
 24 26  2  0  0  0  0
 24 28  1  0  0  0  0
 24 29  1  0  0  0  0
 25 26  1  0  0  0  0
 25 57  1  0  0  0  0
 27 28  2  0  0  0  0
 27 58  1  0  0  0  0
 28 59  1  0  0  0  0
 30 32  1  0  0  0  0
 31 32  2  0  0  0  0
 31 33  1  0  0  0  0
 32 61  1  0  0  0  0
 33 35  1  0  0  0  0
 33 62  1  0  0  0  0
 33 63  1  0  0  0  0
 34 65  1  0  0  0  0
 36 37  2  0  0  0  0
 36 38  1  0  0  0  0
 37 39  1  0  0  0  0
 37 69  1  0  0  0  0
 38 40  2  0  0  0  0
 38 70  1  0  0  0  0
 39 41  2  0  0  0  0
 40 41  1  0  0  0  0
 40 71  1  0  0  0  0
 41 72  1  0  0  0  0
M  END
> <PUBCHEM_COMPOUND_CID>
11497983

> <PUBCHEM_COMPOUND_CANONICALIZED>
1

> <PUBCHEM_CACTVS_COMPLEXITY>
859

> <PUBCHEM_CACTVS_HBOND_ACCEPTOR>
12

> <PUBCHEM_CACTVS_HBOND_DONOR>
5

> <PUBCHEM_CACTVS_ROTATABLE_BOND>
15

> <PUBCHEM_CACTVS_SUBSKEYS>
AAADceB7uQIAAAAAAAAAAAAAAAAAAWAAAAA8YIAAAAAAAACx/AAAHwAYCCAADAzhng439vfrFRCqQydzdICSjCsxIqAd+SE+bJiOLvrE/duGvCj+3BvY6CeY0QMOIAAAAgACAABAAAAEAAQAAAAAAAAAAA==

> <PUBCHEM_IUPAC_OPENEYE_NAME>
2-[ethyl-[3-[4-[[5-[2-(3-fluoroanilino)-2-oxo-ethyl]-1H-pyrazol-3-yl]amino]quinazolin-7-yl]oxypropyl]amino]ethyl dihydrogen phosphate

> <PUBCHEM_IUPAC_CAS_NAME>
2-[ethyl-[3-[[4-[[5-[2-(3-fluoroanilino)-2-oxoethyl]-1H-pyrazol-3-yl]amino]-7-quinazolinyl]oxy]propyl]amino]ethyl dihydrogen phosphate

> <PUBCHEM_IUPAC_NAME_MARKUP>
2-[ethyl-[3-[4-[[5-[2-(3-fluoroanilino)-2-oxoethyl]-1<I>H</I>-pyrazol-3-yl]amino]quinazolin-7-yl]oxypropyl]amino]ethyl dihydrogen phosphate

> <PUBCHEM_IUPAC_NAME>
2-[ethyl-[3-[4-[[5-[2-(3-fluoroanilino)-2-oxoethyl]-1H-pyrazol-3-yl]amino]quinazolin-7-yl]oxypropyl]amino]ethyl dihydrogen phosphate

> <PUBCHEM_IUPAC_SYSTEMATIC_NAME>
2-[ethyl-[3-[4-[[5-[2-[(3-fluorophenyl)amino]-2-oxidanylidene-ethyl]-1H-pyrazol-3-yl]amino]quinazolin-7-yl]oxypropyl]amino]ethyl dihydrogen phosphate

> <PUBCHEM_IUPAC_TRADITIONAL_NAME>
2-[ethyl-[3-[4-[[5-[2-(3-fluoroanilino)-2-keto-ethyl]-1H-pyrazol-3-yl]amino]quinazolin-7-yl]oxypropyl]amino]ethyl dihydrogen phosphate

> <PUBCHEM_IUPAC_INCHI>
InChI=1S/C26H31FN7O6P/c1-2-34(10-12-40-41(36,37)38)9-4-11-39-21-7-8-22-23(16-21)28-17-29-26(22)31-24-14-20(32-33-24)15-25(35)30-19-6-3-5-18(27)13-19/h3,5-8,13-14,16-17H,2,4,9-12,15H2,1H3,(H,30,35)(H2,36,37,38)(H2,28,29,31,32,33)

> <PUBCHEM_IUPAC_INCHIKEY>
GBJVVSCPOBPEIT-UHFFFAOYSA-N

> <PUBCHEM_XLOGP3_AA>
-0.4

> <PUBCHEM_EXACT_MASS>
587.20574689

> <PUBCHEM_MOLECULAR_FORMULA>
C26H31FN7O6P

> <PUBCHEM_MOLECULAR_WEIGHT>
587.5

> <PUBCHEM_SMILES>
CCN(CCCOC1=CC2=C(C=C1)C(=NC=N2)NC3=NNC(=C3)CC(=O)NC4=CC(=CC=C4)F)CCOP(=O)(O)O

> <PUBCHEM_OPENEYE_CAN_SMILES>
CCN(CCCOC1=CC2=C(C=C1)C(=NC=N2)NC3=NNC(=C3)CC(=O)NC4=CC(=CC=C4)F)CCOP(=O)(O)O

> <PUBCHEM_OPENEYE_ISO_SMILES>
CCN(CCCOC1=CC2=C(C=C1)C(=NC=N2)NC3=NNC(=C3)CC(=O)NC4=CC(=CC=C4)F)CCOP(=O)(O)O

> <PUBCHEM_CACTVS_TPSA>
175

> <PUBCHEM_MONOISOTOPIC_WEIGHT>
587.20574689

> <PUBCHEM_TOTAL_CHARGE>
0

> <PUBCHEM_HEAVY_ATOM_COUNT>
41

> <PUBCHEM_ATOM_DEF_STEREO_COUNT>
0

> <PUBCHEM_ATOM_UDEF_STEREO_COUNT>
0

> <PUBCHEM_BOND_DEF_STEREO_COUNT>
0

> <PUBCHEM_BOND_UDEF_STEREO_COUNT>
0

> <PUBCHEM_ISOTOPIC_ATOM_COUNT>
0

> <PUBCHEM_COMPONENT_COUNT>
1

> <PUBCHEM_CACTVS_TAUTO_COUNT>
-1

> <PUBCHEM_COORDINATE_TYPE>
1
5
255

> <PUBCHEM_BONDANNOTATIONS>
11  26  8
11  34  8
12  29  8
12  34  8
13  14  8
13  31  8
14  30  8
23  25  8
23  27  8
24  26  8
24  28  8
24  29  8
25  26  8
27  28  8
30  32  8
31  32  8
36  37  8
36  38  8
37  39  8
38  40  8
39  41  8
40  41  8

$$$$
