24905162
  -OEChem-03192523482D

 39 41  0     0  0  0  0  0  0999 V2000
    7.2566    2.3196    0.0000 S   0  0  0  0  0  0  0  0  0  0  0  0
    7.0504    3.2981    0.0000 O   0  0  0  0  0  0  0  0  0  0  0  0
    7.4628    1.3411    0.0000 O   0  0  0  0  0  0  0  0  0  0  0  0
    4.6783   -1.6033    0.0000 N   0  0  0  0  0  0  0  0  0  0  0  0
    5.2619   -0.7986    0.0000 N   0  0  0  0  0  0  0  0  0  0  0  0
    2.8660   -1.7986    0.0000 N   0  0  0  0  0  0  0  0  0  0  0  0
    2.0000   -0.2986    0.0000 N   0  0  0  0  0  0  0  0  0  0  0  0
    2.8660    1.2014    0.0000 N   0  0  0  0  0  0  0  0  0  0  0  0
    8.2351    2.5258    0.0000 N   0  0  0  0  0  0  0  0  0  0  0  0
    4.9889   -2.5538    0.0000 C   0  0  0  0  0  0  0  0  0  0  0  0
    3.7320   -0.2986    0.0000 C   0  0  0  0  0  0  0  0  0  0  0  0
    3.7320   -1.2986    0.0000 C   0  0  0  0  0  0  0  0  0  0  0  0
    4.6783    0.0062    0.0000 C   0  0  0  0  0  0  0  0  0  0  0  0
    4.9889    0.9567    0.0000 C   0  0  0  0  0  0  0  0  0  0  0  0
    5.9674   -2.7600    0.0000 C   0  0  0  0  0  0  0  0  0  0  0  0
    4.3211   -3.2981    0.0000 C   0  0  0  0  0  0  0  0  0  0  0  0
    2.8660    0.2014    0.0000 C   0  0  0  0  0  0  0  0  0  0  0  0
    5.9674    1.1629    0.0000 C   0  0  0  0  0  0  0  0  0  0  0  0
    6.2781    2.1134    0.0000 C   0  0  0  0  0  0  0  0  0  0  0  0
    4.3211    1.7010    0.0000 C   0  0  0  0  0  0  0  0  0  0  0  0
    5.6103    2.8577    0.0000 C   0  0  0  0  0  0  0  0  0  0  0  0
    4.6318    2.6515    0.0000 C   0  0  0  0  0  0  0  0  0  0  0  0
    2.0000   -1.2986    0.0000 C   0  0  0  0  0  0  0  0  0  0  0  0
    5.1815   -3.1432    0.0000 H   0  0  0  0  0  0  0  0  0  0  0  0
    5.8396   -3.3667    0.0000 H   0  0  0  0  0  0  0  0  0  0  0  0
    6.5741   -2.8879    0.0000 H   0  0  0  0  0  0  0  0  0  0  0  0
    6.0953   -2.1534    0.0000 H   0  0  0  0  0  0  0  0  0  0  0  0
    3.8596   -2.8841    0.0000 H   0  0  0  0  0  0  0  0  0  0  0  0
    3.9070   -3.7596    0.0000 H   0  0  0  0  0  0  0  0  0  0  0  0
    4.7826   -3.7122    0.0000 H   0  0  0  0  0  0  0  0  0  0  0  0
    6.3815    0.7014    0.0000 H   0  0  0  0  0  0  0  0  0  0  0  0
    3.7144    1.5731    0.0000 H   0  0  0  0  0  0  0  0  0  0  0  0
    5.8029    3.4470    0.0000 H   0  0  0  0  0  0  0  0  0  0  0  0
    4.2177    3.1130    0.0000 H   0  0  0  0  0  0  0  0  0  0  0  0
    1.4631   -1.6086    0.0000 H   0  0  0  0  0  0  0  0  0  0  0  0
    2.3291    1.5114    0.0000 H   0  0  0  0  0  0  0  0  0  0  0  0
    3.4030    1.5114    0.0000 H   0  0  0  0  0  0  0  0  0  0  0  0
    8.4277    3.1152    0.0000 H   0  0  0  0  0  0  0  0  0  0  0  0
    8.6492    2.0644    0.0000 H   0  0  0  0  0  0  0  0  0  0  0  0
  1  2  2  0  0  0  0
  1  3  2  0  0  0  0
  1  9  1  0  0  0  0
  1 19  1  0  0  0  0
  4  5  1  0  0  0  0
  4 10  1  0  0  0  0
  4 12  1  0  0  0  0
  5 13  2  0  0  0  0
  6 12  2  0  0  0  0
  6 23  1  0  0  0  0
  7 17  1  0  0  0  0
  7 23  2  0  0  0  0
  8 17  1  0  0  0  0
  8 36  1  0  0  0  0
  8 37  1  0  0  0  0
  9 38  1  0  0  0  0
  9 39  1  0  0  0  0
 10 15  1  0  0  0  0
 10 16  1  0  0  0  0
 10 24  1  0  0  0  0
 11 12  1  0  0  0  0
 11 13  1  0  0  0  0
 11 17  2  0  0  0  0
 13 14  1  0  0  0  0
 14 18  2  0  0  0  0
 14 20  1  0  0  0  0
 15 25  1  0  0  0  0
 15 26  1  0  0  0  0
 15 27  1  0  0  0  0
 16 28  1  0  0  0  0
 16 29  1  0  0  0  0
 16 30  1  0  0  0  0
 18 19  1  0  0  0  0
 18 31  1  0  0  0  0
 19 21  2  0  0  0  0
 20 22  2  0  0  0  0
 20 32  1  0  0  0  0
 21 22  1  0  0  0  0
 21 33  1  0  0  0  0
 22 34  1  0  0  0  0
 23 35  1  0  0  0  0
M  END
> <PUBCHEM_COMPOUND_CID>
24905162

> <PUBCHEM_COMPOUND_CANONICALIZED>
1

> <PUBCHEM_CACTVS_COMPLEXITY>
522

> <PUBCHEM_CACTVS_HBOND_ACCEPTOR>
7

> <PUBCHEM_CACTVS_HBOND_DONOR>
2

> <PUBCHEM_CACTVS_ROTATABLE_BOND>
3

> <PUBCHEM_CACTVS_SUBSKEYS>
AAADceBzsABAAAAAAAAAAAAAAAAAAWAAAAA8QAAAAAAAAFgB/AAAHAQYQAAADCjBXwQ3sd5IEAKiAyZjZHDShDsxgKAd2DgoRJiIKKLA2dGEpAhoiALIyCcQgMAOAAAAgAAAAAAAAAEAAAAAAAAAAAAAAA==

> <PUBCHEM_IUPAC_OPENEYE_NAME>
3-(4-amino-1-isopropyl-pyrazolo[3,4-d]pyrimidin-3-yl)benzenesulfonamide

> <PUBCHEM_IUPAC_CAS_NAME>
3-(4-amino-1-propan-2-yl-3-pyrazolo[3,4-d]pyrimidinyl)benzenesulfonamide

> <PUBCHEM_IUPAC_NAME_MARKUP>
3-(4-amino-1-propan-2-ylpyrazolo[3,4-d]pyrimidin-3-yl)benzenesulfonamide

> <PUBCHEM_IUPAC_NAME>
3-(4-amino-1-propan-2-ylpyrazolo[3,4-d]pyrimidin-3-yl)benzenesulfonamide

> <PUBCHEM_IUPAC_SYSTEMATIC_NAME>
3-(4-azanyl-1-propan-2-yl-pyrazolo[3,4-d]pyrimidin-3-yl)benzenesulfonamide

> <PUBCHEM_IUPAC_TRADITIONAL_NAME>
3-(4-amino-1-isopropyl-pyrazolo[3,4-d]pyrimidin-3-yl)benzenesulfonamide

> <PUBCHEM_IUPAC_INCHI>
InChI=1S/C14H16N6O2S/c1-8(2)20-14-11(13(15)17-7-18-14)12(19-20)9-4-3-5-10(6-9)23(16,21)22/h3-8H,1-2H3,(H2,15,17,18)(H2,16,21,22)

> <PUBCHEM_IUPAC_INCHIKEY>
WDMOOFMBMGLZGY-UHFFFAOYSA-N

> <PUBCHEM_XLOGP3_AA>
0.8

> <PUBCHEM_EXACT_MASS>
332.10554495

> <PUBCHEM_MOLECULAR_FORMULA>
C14H16N6O2S

> <PUBCHEM_MOLECULAR_WEIGHT>
332.38

> <PUBCHEM_SMILES>
CC(C)N1C2=NC=NC(=C2C(=N1)C3=CC(=CC=C3)S(=O)(=O)N)N

> <PUBCHEM_OPENEYE_CAN_SMILES>
CC(C)N1C2=NC=NC(=C2C(=N1)C3=CC(=CC=C3)S(=O)(=O)N)N

> <PUBCHEM_OPENEYE_ISO_SMILES>
CC(C)N1C2=NC=NC(=C2C(=N1)C3=CC(=CC=C3)S(=O)(=O)N)N

> <PUBCHEM_CACTVS_TPSA>
138

> <PUBCHEM_MONOISOTOPIC_WEIGHT>
332.10554495

> <PUBCHEM_TOTAL_CHARGE>
0

> <PUBCHEM_HEAVY_ATOM_COUNT>
23

> <PUBCHEM_ATOM_DEF_STEREO_COUNT>
0

> <PUBCHEM_ATOM_UDEF_STEREO_COUNT>
0

> <PUBCHEM_BOND_DEF_STEREO_COUNT>
0

> <PUBCHEM_BOND_UDEF_STEREO_COUNT>
0

> <PUBCHEM_ISOTOPIC_ATOM_COUNT>
0

> <PUBCHEM_COMPONENT_COUNT>
1

> <PUBCHEM_CACTVS_TAUTO_COUNT>
-1

> <PUBCHEM_COORDINATE_TYPE>
1
5
255

> <PUBCHEM_BONDANNOTATIONS>
11  12  8
11  13  8
11  17  8
14  18  8
14  20  8
18  19  8
19  21  8
20  22  8
21  22  8
4  12  8
4  5  8
5  13  8
6  12  8
6  23  8
7  17  8
7  23  8

$$$$
