24905197
  -OEChem-03192523542D

 46 49  0     0  0  0  0  0  0999 V2000
    5.9209    3.1426    0.0000 O   0  0  0  0  0  0  0  0  0  0  0  0
    7.2566    1.6540    0.0000 O   0  0  0  0  0  0  0  0  0  0  0  0
    4.6783   -2.2689    0.0000 N   0  0  0  0  0  0  0  0  0  0  0  0
    5.2619   -1.4642    0.0000 N   0  0  0  0  0  0  0  0  0  0  0  0
    2.8660   -2.4642    0.0000 N   0  0  0  0  0  0  0  0  0  0  0  0
    2.0000   -0.9642    0.0000 N   0  0  0  0  0  0  0  0  0  0  0  0
    2.8660    0.5358    0.0000 N   0  0  0  0  0  0  0  0  0  0  0  0
    4.9889   -3.2194    0.0000 C   0  0  0  0  0  0  0  0  0  0  0  0
    4.4026   -4.0295    0.0000 C   0  0  0  0  0  0  0  0  0  0  0  0
    5.9405   -3.5268    0.0000 C   0  0  0  0  0  0  0  0  0  0  0  0
    4.9917   -4.8375    0.0000 C   0  0  0  0  0  0  0  0  0  0  0  0
    5.9422   -4.5268    0.0000 C   0  0  0  0  0  0  0  0  0  0  0  0
    3.7320   -1.9642    0.0000 C   0  0  0  0  0  0  0  0  0  0  0  0
    3.7320   -0.9642    0.0000 C   0  0  0  0  0  0  0  0  0  0  0  0
    4.6783   -0.6594    0.0000 C   0  0  0  0  0  0  0  0  0  0  0  0
    4.9889    0.2911    0.0000 C   0  0  0  0  0  0  0  0  0  0  0  0
    2.8660   -0.4642    0.0000 C   0  0  0  0  0  0  0  0  0  0  0  0
    2.0000   -1.9642    0.0000 C   0  0  0  0  0  0  0  0  0  0  0  0
    5.9674    0.4973    0.0000 C   0  0  0  0  0  0  0  0  0  0  0  0
    4.3211    1.0354    0.0000 C   0  0  0  0  0  0  0  0  0  0  0  0
    6.2781    1.4478    0.0000 C   0  0  0  0  0  0  0  0  0  0  0  0
    4.6318    1.9859    0.0000 C   0  0  0  0  0  0  0  0  0  0  0  0
    5.6103    2.1921    0.0000 C   0  0  0  0  0  0  0  0  0  0  0  0
    5.2531    3.8869    0.0000 C   0  0  0  0  0  0  0  0  0  0  0  0
    5.5637    4.8375    0.0000 C   0  0  0  0  0  0  0  0  0  0  0  0
    5.4266   -2.7803    0.0000 H   0  0  0  0  0  0  0  0  0  0  0  0
    3.9411   -3.6154    0.0000 H   0  0  0  0  0  0  0  0  0  0  0  0
    3.9425   -4.4451    0.0000 H   0  0  0  0  0  0  0  0  0  0  0  0
    6.5572   -3.5905    0.0000 H   0  0  0  0  0  0  0  0  0  0  0  0
    6.0684   -2.9201    0.0000 H   0  0  0  0  0  0  0  0  0  0  0  0
    4.4553   -5.1484    0.0000 H   0  0  0  0  0  0  0  0  0  0  0  0
    5.2449   -5.4034    0.0000 H   0  0  0  0  0  0  0  0  0  0  0  0
    6.0722   -5.1330    0.0000 H   0  0  0  0  0  0  0  0  0  0  0  0
    6.5587   -4.4609    0.0000 H   0  0  0  0  0  0  0  0  0  0  0  0
    1.4631   -2.2742    0.0000 H   0  0  0  0  0  0  0  0  0  0  0  0
    6.3815    0.0358    0.0000 H   0  0  0  0  0  0  0  0  0  0  0  0
    3.7144    0.9075    0.0000 H   0  0  0  0  0  0  0  0  0  0  0  0
    2.3291    0.8458    0.0000 H   0  0  0  0  0  0  0  0  0  0  0  0
    3.4030    0.8458    0.0000 H   0  0  0  0  0  0  0  0  0  0  0  0
    4.2177    2.4474    0.0000 H   0  0  0  0  0  0  0  0  0  0  0  0
    7.6707    1.1926    0.0000 H   0  0  0  0  0  0  0  0  0  0  0  0
    4.7062    4.1790    0.0000 H   0  0  0  0  0  0  0  0  0  0  0  0
    4.8705    3.3990    0.0000 H   0  0  0  0  0  0  0  0  0  0  0  0
    6.1531    4.6448    0.0000 H   0  0  0  0  0  0  0  0  0  0  0  0
    5.7564    5.4268    0.0000 H   0  0  0  0  0  0  0  0  0  0  0  0
    4.9744    5.0301    0.0000 H   0  0  0  0  0  0  0  0  0  0  0  0
  1 23  1  0  0  0  0
  1 24  1  0  0  0  0
  2 21  1  0  0  0  0
  2 41  1  0  0  0  0
  3  4  1  0  0  0  0
  3  8  1  0  0  0  0
  3 13  1  0  0  0  0
  4 15  2  0  0  0  0
  5 13  2  0  0  0  0
  5 18  1  0  0  0  0
  6 17  1  0  0  0  0
  6 18  2  0  0  0  0
  7 17  1  0  0  0  0
  7 38  1  0  0  0  0
  7 39  1  0  0  0  0
  8  9  1  0  0  0  0
  8 10  1  0  0  0  0
  8 26  1  0  0  0  0
  9 11  1  0  0  0  0
  9 27  1  0  0  0  0
  9 28  1  0  0  0  0
 10 12  1  0  0  0  0
 10 29  1  0  0  0  0
 10 30  1  0  0  0  0
 11 12  1  0  0  0  0
 11 31  1  0  0  0  0
 11 32  1  0  0  0  0
 12 33  1  0  0  0  0
 12 34  1  0  0  0  0
 13 14  1  0  0  0  0
 14 15  1  0  0  0  0
 14 17  2  0  0  0  0
 15 16  1  0  0  0  0
 16 19  2  0  0  0  0
 16 20  1  0  0  0  0
 18 35  1  0  0  0  0
 19 21  1  0  0  0  0
 19 36  1  0  0  0  0
 20 22  2  0  0  0  0
 20 37  1  0  0  0  0
 21 23  2  0  0  0  0
 22 23  1  0  0  0  0
 22 40  1  0  0  0  0
 24 25  1  0  0  0  0
 24 42  1  0  0  0  0
 24 43  1  0  0  0  0
 25 44  1  0  0  0  0
 25 45  1  0  0  0  0
 25 46  1  0  0  0  0
M  END
> <PUBCHEM_COMPOUND_CID>
24905197

> <PUBCHEM_COMPOUND_CANONICALIZED>
1

> <PUBCHEM_CACTVS_COMPLEXITY>
447

> <PUBCHEM_CACTVS_HBOND_ACCEPTOR>
6

> <PUBCHEM_CACTVS_HBOND_DONOR>
2

> <PUBCHEM_CACTVS_ROTATABLE_BOND>
4

> <PUBCHEM_CACTVS_SUBSKEYS>
AAADceB7sAAAAAAAAAAAAAAAAAAAAeIAAAA8QAAAAAAAAFgB/AAAHgAYCAAADCzhnwY3tt5IFgCiAyZjZACSjCsxoKAd2CAuzJiNLqLG+duG/CvsyBPL+Cew0PEOIAABAAAAQABAAAIAAACAAAAAAAAAAA==

> <PUBCHEM_IUPAC_OPENEYE_NAME>
5-(4-amino-1-cyclopentyl-pyrazolo[3,4-d]pyrimidin-3-yl)-2-ethoxy-phenol

> <PUBCHEM_IUPAC_CAS_NAME>
5-(4-amino-1-cyclopentyl-3-pyrazolo[3,4-d]pyrimidinyl)-2-ethoxyphenol

> <PUBCHEM_IUPAC_NAME_MARKUP>
5-(4-amino-1-cyclopentylpyrazolo[3,4-d]pyrimidin-3-yl)-2-ethoxyphenol

> <PUBCHEM_IUPAC_NAME>
5-(4-amino-1-cyclopentylpyrazolo[3,4-d]pyrimidin-3-yl)-2-ethoxyphenol

> <PUBCHEM_IUPAC_SYSTEMATIC_NAME>
5-(4-azanyl-1-cyclopentyl-pyrazolo[3,4-d]pyrimidin-3-yl)-2-ethoxy-phenol

> <PUBCHEM_IUPAC_TRADITIONAL_NAME>
5-(4-amino-1-cyclopentyl-pyrazolo[3,4-d]pyrimidin-3-yl)-2-ethoxy-phenol

> <PUBCHEM_IUPAC_INCHI>
InChI=1S/C18H21N5O2/c1-2-25-14-8-7-11(9-13(14)24)16-15-17(19)20-10-21-18(15)23(22-16)12-5-3-4-6-12/h7-10,12,24H,2-6H2,1H3,(H2,19,20,21)

> <PUBCHEM_IUPAC_INCHIKEY>
HVUAYFFHDRNLOX-UHFFFAOYSA-N

> <PUBCHEM_XLOGP3_AA>
2.7

> <PUBCHEM_EXACT_MASS>
339.16952493

> <PUBCHEM_MOLECULAR_FORMULA>
C18H21N5O2

> <PUBCHEM_MOLECULAR_WEIGHT>
339.4

> <PUBCHEM_SMILES>
CCOC1=C(C=C(C=C1)C2=NN(C3=NC=NC(=C23)N)C4CCCC4)O

> <PUBCHEM_OPENEYE_CAN_SMILES>
CCOC1=C(C=C(C=C1)C2=NN(C3=NC=NC(=C23)N)C4CCCC4)O

> <PUBCHEM_OPENEYE_ISO_SMILES>
CCOC1=C(C=C(C=C1)C2=NN(C3=NC=NC(=C23)N)C4CCCC4)O

> <PUBCHEM_CACTVS_TPSA>
99.1

> <PUBCHEM_MONOISOTOPIC_WEIGHT>
339.16952493

> <PUBCHEM_TOTAL_CHARGE>
0

> <PUBCHEM_HEAVY_ATOM_COUNT>
25

> <PUBCHEM_ATOM_DEF_STEREO_COUNT>
0

> <PUBCHEM_ATOM_UDEF_STEREO_COUNT>
0

> <PUBCHEM_BOND_DEF_STEREO_COUNT>
0

> <PUBCHEM_BOND_UDEF_STEREO_COUNT>
0

> <PUBCHEM_ISOTOPIC_ATOM_COUNT>
0

> <PUBCHEM_COMPONENT_COUNT>
1

> <PUBCHEM_CACTVS_TAUTO_COUNT>
-1

> <PUBCHEM_COORDINATE_TYPE>
1
5
255

> <PUBCHEM_BONDANNOTATIONS>
13  14  8
14  15  8
14  17  8
16  19  8
16  20  8
19  21  8
20  22  8
21  23  8
22  23  8
3  13  8
3  4  8
4  15  8
5  13  8
5  18  8
6  17  8
6  18  8

$$$$
