24905176
  -OEChem-03192523472D

 38 40  0     0  0  0  0  0  0999 V2000
    6.6353    0.0604    0.0000 F   0  0  0  0  0  0  0  0  0  0  0  0
    3.9639    3.0376    0.0000 F   0  0  0  0  0  0  0  0  0  0  0  0
    5.9209    3.4501    0.0000 O   0  0  0  0  0  0  0  0  0  0  0  0
    4.6783   -1.9615    0.0000 N   0  0  0  0  0  0  0  0  0  0  0  0
    5.2619   -1.1567    0.0000 N   0  0  0  0  0  0  0  0  0  0  0  0
    2.8660   -2.1567    0.0000 N   0  0  0  0  0  0  0  0  0  0  0  0
    2.0000   -0.6567    0.0000 N   0  0  0  0  0  0  0  0  0  0  0  0
    2.8660    0.8433    0.0000 N   0  0  0  0  0  0  0  0  0  0  0  0
    4.9889   -2.9120    0.0000 C   0  0  0  0  0  0  0  0  0  0  0  0
    3.7320   -1.6567    0.0000 C   0  0  0  0  0  0  0  0  0  0  0  0
    3.7320   -0.6567    0.0000 C   0  0  0  0  0  0  0  0  0  0  0  0
    4.6783   -0.3520    0.0000 C   0  0  0  0  0  0  0  0  0  0  0  0
    5.9674   -3.1182    0.0000 C   0  0  0  0  0  0  0  0  0  0  0  0
    4.3211   -3.6563    0.0000 C   0  0  0  0  0  0  0  0  0  0  0  0
    4.9889    0.5985    0.0000 C   0  0  0  0  0  0  0  0  0  0  0  0
    2.8660   -0.1567    0.0000 C   0  0  0  0  0  0  0  0  0  0  0  0
    5.9674    0.8047    0.0000 C   0  0  0  0  0  0  0  0  0  0  0  0
    4.3211    1.3428    0.0000 C   0  0  0  0  0  0  0  0  0  0  0  0
    2.0000   -1.6567    0.0000 C   0  0  0  0  0  0  0  0  0  0  0  0
    4.6318    2.2933    0.0000 C   0  0  0  0  0  0  0  0  0  0  0  0
    6.2781    1.7552    0.0000 C   0  0  0  0  0  0  0  0  0  0  0  0
    5.6103    2.4996    0.0000 C   0  0  0  0  0  0  0  0  0  0  0  0
    6.8994    3.6563    0.0000 C   0  0  0  0  0  0  0  0  0  0  0  0
    5.1815   -3.5013    0.0000 H   0  0  0  0  0  0  0  0  0  0  0  0
    5.8396   -3.7249    0.0000 H   0  0  0  0  0  0  0  0  0  0  0  0
    6.5741   -3.2461    0.0000 H   0  0  0  0  0  0  0  0  0  0  0  0
    6.0953   -2.5115    0.0000 H   0  0  0  0  0  0  0  0  0  0  0  0
    3.8596   -3.2422    0.0000 H   0  0  0  0  0  0  0  0  0  0  0  0
    3.9070   -4.1178    0.0000 H   0  0  0  0  0  0  0  0  0  0  0  0
    4.7826   -4.0704    0.0000 H   0  0  0  0  0  0  0  0  0  0  0  0
    3.7144    1.2150    0.0000 H   0  0  0  0  0  0  0  0  0  0  0  0
    1.4631   -1.9667    0.0000 H   0  0  0  0  0  0  0  0  0  0  0  0
    6.8848    1.8831    0.0000 H   0  0  0  0  0  0  0  0  0  0  0  0
    2.3291    1.1533    0.0000 H   0  0  0  0  0  0  0  0  0  0  0  0
    3.4030    1.1533    0.0000 H   0  0  0  0  0  0  0  0  0  0  0  0
    7.0273    3.0496    0.0000 H   0  0  0  0  0  0  0  0  0  0  0  0
    7.5061    3.7842    0.0000 H   0  0  0  0  0  0  0  0  0  0  0  0
    6.7716    4.2630    0.0000 H   0  0  0  0  0  0  0  0  0  0  0  0
  1 17  1  0  0  0  0
  2 20  1  0  0  0  0
  3 22  1  0  0  0  0
  3 23  1  0  0  0  0
  4  5  1  0  0  0  0
  4  9  1  0  0  0  0
  4 10  1  0  0  0  0
  5 12  2  0  0  0  0
  6 10  2  0  0  0  0
  6 19  1  0  0  0  0
  7 16  1  0  0  0  0
  7 19  2  0  0  0  0
  8 16  1  0  0  0  0
  8 34  1  0  0  0  0
  8 35  1  0  0  0  0
  9 13  1  0  0  0  0
  9 14  1  0  0  0  0
  9 24  1  0  0  0  0
 10 11  1  0  0  0  0
 11 12  1  0  0  0  0
 11 16  2  0  0  0  0
 12 15  1  0  0  0  0
 13 25  1  0  0  0  0
 13 26  1  0  0  0  0
 13 27  1  0  0  0  0
 14 28  1  0  0  0  0
 14 29  1  0  0  0  0
 14 30  1  0  0  0  0
 15 17  1  0  0  0  0
 15 18  2  0  0  0  0
 17 21  2  0  0  0  0
 18 20  1  0  0  0  0
 18 31  1  0  0  0  0
 19 32  1  0  0  0  0
 20 22  2  0  0  0  0
 21 22  1  0  0  0  0
 21 33  1  0  0  0  0
 23 36  1  0  0  0  0
 23 37  1  0  0  0  0
 23 38  1  0  0  0  0
M  END
> <PUBCHEM_COMPOUND_CID>
24905176

> <PUBCHEM_COMPOUND_CANONICALIZED>
1

> <PUBCHEM_CACTVS_COMPLEXITY>
415

> <PUBCHEM_CACTVS_HBOND_ACCEPTOR>
7

> <PUBCHEM_CACTVS_HBOND_DONOR>
1

> <PUBCHEM_CACTVS_ROTATABLE_BOND>
3

> <PUBCHEM_CACTVS_SUBSKEYS>
AAADccBzoYAAAAAAAAAAAAAAAAAAAWAAAAA8QAAAAAAAAFgB/AAAHwAYAAAADCzBnw43tt5IFACiAyZjZACSjCsxoKAV2CAuTJiMLqLE+NuEtChsyBPI6CeQ0OEOIAAAAAAAAABAAAAAAAAAAAAAAAAAAA==

> <PUBCHEM_IUPAC_OPENEYE_NAME>
3-(2,5-difluoro-4-methoxy-phenyl)-1-isopropyl-pyrazolo[3,4-d]pyrimidin-4-amine

> <PUBCHEM_IUPAC_CAS_NAME>
3-(2,5-difluoro-4-methoxyphenyl)-1-propan-2-yl-4-pyrazolo[3,4-d]pyrimidinamine

> <PUBCHEM_IUPAC_NAME_MARKUP>
3-(2,5-difluoro-4-methoxyphenyl)-1-propan-2-ylpyrazolo[3,4-d]pyrimidin-4-amine

> <PUBCHEM_IUPAC_NAME>
3-(2,5-difluoro-4-methoxyphenyl)-1-propan-2-ylpyrazolo[3,4-d]pyrimidin-4-amine

> <PUBCHEM_IUPAC_SYSTEMATIC_NAME>
3-[2,5-bis(fluoranyl)-4-methoxy-phenyl]-1-propan-2-yl-pyrazolo[3,4-d]pyrimidin-4-amine

> <PUBCHEM_IUPAC_TRADITIONAL_NAME>
[3-(2,5-difluoro-4-methoxy-phenyl)-1-isopropyl-pyrazolo[3,4-d]pyrimidin-4-yl]amine

> <PUBCHEM_IUPAC_INCHI>
InChI=1S/C15H15F2N5O/c1-7(2)22-15-12(14(18)19-6-20-15)13(21-22)8-4-10(17)11(23-3)5-9(8)16/h4-7H,1-3H3,(H2,18,19,20)

> <PUBCHEM_IUPAC_INCHIKEY>
OUQOXXMJLDQZQC-UHFFFAOYSA-N

> <PUBCHEM_XLOGP3_AA>
2.4

> <PUBCHEM_EXACT_MASS>
319.12446644

> <PUBCHEM_MOLECULAR_FORMULA>
C15H15F2N5O

> <PUBCHEM_MOLECULAR_WEIGHT>
319.31

> <PUBCHEM_SMILES>
CC(C)N1C2=NC=NC(=C2C(=N1)C3=CC(=C(C=C3F)OC)F)N

> <PUBCHEM_OPENEYE_CAN_SMILES>
CC(C)N1C2=NC=NC(=C2C(=N1)C3=CC(=C(C=C3F)OC)F)N

> <PUBCHEM_OPENEYE_ISO_SMILES>
CC(C)N1C2=NC=NC(=C2C(=N1)C3=CC(=C(C=C3F)OC)F)N

> <PUBCHEM_CACTVS_TPSA>
78.9

> <PUBCHEM_MONOISOTOPIC_WEIGHT>
319.12446644

> <PUBCHEM_TOTAL_CHARGE>
0

> <PUBCHEM_HEAVY_ATOM_COUNT>
23

> <PUBCHEM_ATOM_DEF_STEREO_COUNT>
0

> <PUBCHEM_ATOM_UDEF_STEREO_COUNT>
0

> <PUBCHEM_BOND_DEF_STEREO_COUNT>
0

> <PUBCHEM_BOND_UDEF_STEREO_COUNT>
0

> <PUBCHEM_ISOTOPIC_ATOM_COUNT>
0

> <PUBCHEM_COMPONENT_COUNT>
1

> <PUBCHEM_CACTVS_TAUTO_COUNT>
-1

> <PUBCHEM_COORDINATE_TYPE>
1
5
255

> <PUBCHEM_BONDANNOTATIONS>
10  11  8
11  12  8
11  16  8
15  17  8
15  18  8
17  21  8
18  20  8
20  22  8
21  22  8
4  10  8
4  5  8
5  12  8
6  10  8
6  19  8
7  16  8
7  19  8

$$$$
