44364044
  -OEChem-03202505452D

 63 70  0     1  0  0  0  0  0999 V2000
    2.9027   -1.8786    0.0000 O   0  0  0  0  0  0  0  0  0  0  0  0
    1.8840    1.9233    0.0000 O   0  0  0  0  0  0  0  0  0  0  0  0
    9.6471   -2.7437    0.0000 O   0  0  0  0  0  0  0  0  0  0  0  0
   10.8707    0.6180    0.0000 O   0  0  0  0  0  0  0  0  0  0  0  0
    5.5955    2.3172    0.0000 N   0  0  0  0  0  0  0  0  0  0  0  0
    6.1935   -0.6474    0.0000 N   0  0  0  0  0  0  0  0  0  0  0  0
    6.8776    1.2320    0.0000 N   0  0  0  0  0  0  0  0  0  0  0  0
   10.5382   -1.1645    0.0000 N   0  0  0  0  0  0  0  0  0  0  0  0
    5.1177    0.3687    0.0000 C   0  0  2  0  0  0  0  0  0  0  0  0
    4.8589    1.3346    0.0000 C   0  0  1  0  0  0  0  0  0  0  0  0
    3.8461   -0.4260    0.0000 C   0  0  3  0  0  0  0  0  0  0  0  0
    3.4273    1.1369    0.0000 C   0  0  3  0  0  0  0  0  0  0  0  0
    3.0689    0.2034    0.0000 C   0  0  0  0  0  0  0  0  0  0  0  0
    7.1784   -0.4737    0.0000 C   0  0  0  0  0  0  0  0  0  0  0  0
    7.5204    0.4660    0.0000 C   0  0  0  0  0  0  0  0  0  0  0  0
    7.8355   -1.2819    0.0000 C   0  0  0  0  0  0  0  0  0  0  0  0
    8.5433    0.6626    0.0000 C   0  0  0  0  0  0  0  0  0  0  0  0
    3.7937   -1.4246    0.0000 C   0  0  0  0  0  0  0  0  0  0  0  0
    2.8826    1.9756    0.0000 C   0  0  0  0  0  0  0  0  0  0  0  0
    6.2205   -1.6408    0.0000 C   0  0  0  0  0  0  0  0  0  0  0  0
    7.5368    1.9757    0.0000 C   0  0  0  0  0  0  0  0  0  0  0  0
    7.1475   -1.9990    0.0000 C   0  0  0  0  0  0  0  0  0  0  0  0
    8.4772    1.6543    0.0000 C   0  0  0  0  0  0  0  0  0  0  0  0
    8.8627   -1.1089    0.0000 C   0  0  0  0  0  0  0  0  0  0  0  0
    9.2189   -0.1301    0.0000 C   0  0  0  0  0  0  0  0  0  0  0  0
    5.4046   -2.2780    0.0000 C   0  0  0  0  0  0  0  0  0  0  0  0
    7.3214    2.9882    0.0000 C   0  0  0  0  0  0  0  0  0  0  0  0
    7.3229   -3.0193    0.0000 C   0  0  0  0  0  0  0  0  0  0  0  0
    9.2674    2.3231    0.0000 C   0  0  0  0  0  0  0  0  0  0  0  0
    9.6803   -1.7443    0.0000 C   0  0  0  0  0  0  0  0  0  0  0  0
   10.2537   -0.1689    0.0000 C   0  0  0  0  0  0  0  0  0  0  0  0
    5.5564   -3.3020    0.0000 C   0  0  0  0  0  0  0  0  0  0  0  0
    8.0958    3.6751    0.0000 C   0  0  0  0  0  0  0  0  0  0  0  0
    6.5220   -3.6751    0.0000 C   0  0  0  0  0  0  0  0  0  0  0  0
    9.0754    3.3403    0.0000 C   0  0  0  0  0  0  0  0  0  0  0  0
    2.8504   -2.8772    0.0000 C   0  0  0  0  0  0  0  0  0  0  0  0
    1.3394    2.7620    0.0000 C   0  0  0  0  0  0  0  0  0  0  0  0
    5.3377   -0.4524    0.0000 H   0  0  0  0  0  0  0  0  0  0  0  0
    4.6389    2.1556    0.0000 H   0  0  0  0  0  0  0  0  0  0  0  0
    3.2797   -0.6781    0.0000 H   0  0  0  0  0  0  0  0  0  0  0  0
    2.8107    1.0721    0.0000 H   0  0  0  0  0  0  0  0  0  0  0  0
    2.7312   -0.3166    0.0000 H   0  0  0  0  0  0  0  0  0  0  0  0
    2.5165    0.4848    0.0000 H   0  0  0  0  0  0  0  0  0  0  0  0
    5.9055    2.8542    0.0000 H   0  0  0  0  0  0  0  0  0  0  0  0
    4.4091   -1.3490    0.0000 H   0  0  0  0  0  0  0  0  0  0  0  0
    3.9750   -2.0175    0.0000 H   0  0  0  0  0  0  0  0  0  0  0  0
    2.7432    2.5797    0.0000 H   0  0  0  0  0  0  0  0  0  0  0  0
    3.4534    2.2179    0.0000 H   0  0  0  0  0  0  0  0  0  0  0  0
    4.8289   -2.0478    0.0000 H   0  0  0  0  0  0  0  0  0  0  0  0
    6.7324    3.1820    0.0000 H   0  0  0  0  0  0  0  0  0  0  0  0
    7.9038   -3.2360    0.0000 H   0  0  0  0  0  0  0  0  0  0  0  0
    9.8517    2.1157    0.0000 H   0  0  0  0  0  0  0  0  0  0  0  0
   11.1208   -1.3766    0.0000 H   0  0  0  0  0  0  0  0  0  0  0  0
    5.0722   -3.6892    0.0000 H   0  0  0  0  0  0  0  0  0  0  0  0
    7.9738    4.2830    0.0000 H   0  0  0  0  0  0  0  0  0  0  0  0
    6.6200   -4.2873    0.0000 H   0  0  0  0  0  0  0  0  0  0  0  0
    9.5440    3.7463    0.0000 H   0  0  0  0  0  0  0  0  0  0  0  0
    3.4695   -2.9097    0.0000 H   0  0  0  0  0  0  0  0  0  0  0  0
    2.8179   -3.4964    0.0000 H   0  0  0  0  0  0  0  0  0  0  0  0
    2.2312   -2.8448    0.0000 H   0  0  0  0  0  0  0  0  0  0  0  0
    0.8194    2.4243    0.0000 H   0  0  0  0  0  0  0  0  0  0  0  0
    1.0017    3.2819    0.0000 H   0  0  0  0  0  0  0  0  0  0  0  0
    1.8594    3.0996    0.0000 H   0  0  0  0  0  0  0  0  0  0  0  0
  1 18  1  0  0  0  0
  1 36  1  0  0  0  0
  2 19  1  0  0  0  0
  2 37  1  0  0  0  0
  3 30  2  0  0  0  0
  4 31  2  0  0  0  0
  5  9  1  0  0  0  0
  5 10  1  0  0  0  0
  5 44  1  0  0  0  0
  6  9  1  0  0  0  0
  6 14  1  0  0  0  0
  6 20  1  0  0  0  0
  7 10  1  0  0  0  0
  7 15  1  0  0  0  0
  7 21  1  0  0  0  0
  8 30  1  0  0  0  0
  8 31  1  0  0  0  0
  8 53  1  0  0  0  0
  9 11  1  0  0  0  0
  9 38  1  1  0  0  0
 10 12  1  0  0  0  0
 10 39  1  6  0  0  0
 11 13  1  0  0  0  0
 11 18  1  0  0  0  0
 11 40  1  0  0  0  0
 12 13  1  0  0  0  0
 12 19  1  0  0  0  0
 12 41  1  0  0  0  0
 13 42  1  0  0  0  0
 13 43  1  0  0  0  0
 14 15  2  0  0  0  0
 14 16  1  0  0  0  0
 15 17  1  0  0  0  0
 16 22  1  0  0  0  0
 16 24  2  0  0  0  0
 17 23  1  0  0  0  0
 17 25  2  0  0  0  0
 18 45  1  0  0  0  0
 18 46  1  0  0  0  0
 19 47  1  0  0  0  0
 19 48  1  0  0  0  0
 20 22  1  0  0  0  0
 20 26  2  0  0  0  0
 21 23  1  0  0  0  0
 21 27  2  0  0  0  0
 22 28  2  0  0  0  0
 23 29  2  0  0  0  0
 24 25  1  0  0  0  0
 24 30  1  0  0  0  0
 25 31  1  0  0  0  0
 26 32  1  0  0  0  0
 26 49  1  0  0  0  0
 27 33  1  0  0  0  0
 27 50  1  0  0  0  0
 28 34  1  0  0  0  0
 28 51  1  0  0  0  0
 29 35  1  0  0  0  0
 29 52  1  0  0  0  0
 32 34  2  0  0  0  0
 32 54  1  0  0  0  0
 33 35  2  0  0  0  0
 33 55  1  0  0  0  0
 34 56  1  0  0  0  0
 35 57  1  0  0  0  0
 36 58  1  0  0  0  0
 36 59  1  0  0  0  0
 36 60  1  0  0  0  0
 37 61  1  0  0  0  0
 37 62  1  0  0  0  0
 37 63  1  0  0  0  0
M  END
> <PUBCHEM_COMPOUND_CID>
44364044

> <PUBCHEM_COMPOUND_CANONICALIZED>
1

> <PUBCHEM_CACTVS_COMPLEXITY>
890

> <PUBCHEM_CACTVS_HBOND_ACCEPTOR>
5

> <PUBCHEM_CACTVS_HBOND_DONOR>
2

> <PUBCHEM_CACTVS_ROTATABLE_BOND>
4

> <PUBCHEM_CACTVS_SUBSKEYS>
AAADceB7uAAAAAAAAAAAAAAAAAAAAWLFgAA8YMEABYAAAFix/gAAHgAQAAAADQjhngYzwPPMFACoAyVyVACCgCQlEiAI2KE4dNiIYPLAlZGUIQhulCLIySeducqeyAACQAASACCQAASAACQAQAAAAAAAAA==

> <PUBCHEM_IUPAC_OPENEYE_NAME>
(2R,6S)-3,5-bis(methoxymethyl)-1,7,17,29-tetrazaoctacyclo[12.12.2.12,6.07,28.08,13.015,19.020,27.021,26]nonacosa-8,10,12,14,19,21,23,25,27-nonaene-16,18-dione

> <PUBCHEM_IUPAC_CAS_NAME>
(2R,6S)-3,5-bis(methoxymethyl)-1,7,17,29-tetrazaoctacyclo[12.12.2.12,6.07,28.08,13.015,19.020,27.021,26]nonacosa-8,10,12,14,19,21,23,25,27-nonaene-16,18-dione

> <PUBCHEM_IUPAC_NAME_MARKUP>
(2<I>R</I>,6<I>S</I>)-3,5-bis(methoxymethyl)-1,7,17,29-tetrazaoctacyclo[12.12.2.1<SUP>2,6</SUP>.0<SUP>7,28</SUP>.0<SUP>8,13</SUP>.0<SUP>15,19</SUP>.0<SUP>20,27</SUP>.0<SUP>21,26</SUP>]nonacosa-8,10,12,14,19,21,23,25,27-nonaene-16,18-dione

> <PUBCHEM_IUPAC_NAME>
(2R,6S)-3,5-bis(methoxymethyl)-1,7,17,29-tetrazaoctacyclo[12.12.2.12,6.07,28.08,13.015,19.020,27.021,26]nonacosa-8,10,12,14,19,21,23,25,27-nonaene-16,18-dione

> <PUBCHEM_IUPAC_SYSTEMATIC_NAME>
(2R,6S)-3,5-bis(methoxymethyl)-1,7,17,29-tetrazaoctacyclo[12.12.2.12,6.07,28.08,13.015,19.020,27.021,26]nonacosa-8,10,12,14,19,21,23,25,27-nonaene-16,18-dione

> <PUBCHEM_IUPAC_TRADITIONAL_NAME>
(2R,6S)-3,5-bis(methoxymethyl)-1,7,17,29-tetrazaoctacyclo[12.12.2.12,6.07,28.08,13.015,19.020,27.021,26]nonacosa-8,10,12,14,19,21,23,25,27-nonaene-16,18-quinone

> <PUBCHEM_IUPAC_INCHI>
InChI=1S/C29H26N4O4/c1-36-12-14-11-15(13-37-2)27-30-26(14)32-18-9-5-3-7-16(18)20-22-23(29(35)31-28(22)34)21-17-8-4-6-10-19(17)33(27)25(21)24(20)32/h3-10,14-15,26-27,30H,11-13H2,1-2H3,(H,31,34,35)/t14?,15?,26-,27+

> <PUBCHEM_IUPAC_INCHIKEY>
KZUFDOMTNKRDOD-ORNQNOAFSA-N

> <PUBCHEM_XLOGP3_AA>
3.4

> <PUBCHEM_EXACT_MASS>
494.19540532

> <PUBCHEM_MOLECULAR_FORMULA>
C29H26N4O4

> <PUBCHEM_MOLECULAR_WEIGHT>
494.5

> <PUBCHEM_SMILES>
COCC1CC([C@H]2N[C@@H]1N3C4=CC=CC=C4C5=C6C(=C7C8=CC=CC=C8N2C7=C53)C(=O)NC6=O)COC

> <PUBCHEM_OPENEYE_CAN_SMILES>
COCC1CC(C2NC1N3C4=CC=CC=C4C5=C6C(=C7C8=CC=CC=C8N2C7=C53)C(=O)NC6=O)COC

> <PUBCHEM_OPENEYE_ISO_SMILES>
COCC1CC([C@H]2N[C@@H]1N3C4=CC=CC=C4C5=C6C(=C7C8=CC=CC=C8N2C7=C53)C(=O)NC6=O)COC

> <PUBCHEM_CACTVS_TPSA>
86.5

> <PUBCHEM_MONOISOTOPIC_WEIGHT>
494.19540532

> <PUBCHEM_TOTAL_CHARGE>
0

> <PUBCHEM_HEAVY_ATOM_COUNT>
37

> <PUBCHEM_ATOM_DEF_STEREO_COUNT>
2

> <PUBCHEM_ATOM_UDEF_STEREO_COUNT>
2

> <PUBCHEM_BOND_DEF_STEREO_COUNT>
0

> <PUBCHEM_BOND_UDEF_STEREO_COUNT>
0

> <PUBCHEM_ISOTOPIC_ATOM_COUNT>
0

> <PUBCHEM_COMPONENT_COUNT>
1

> <PUBCHEM_CACTVS_TAUTO_COUNT>
-1

> <PUBCHEM_COORDINATE_TYPE>
1
5
255

> <PUBCHEM_BONDANNOTATIONS>
10  39  6
11  18  3
12  19  3
14  15  8
14  16  8
15  17  8
16  22  8
16  24  8
17  23  8
17  25  8
20  22  8
20  26  8
21  23  8
21  27  8
22  28  8
23  29  8
24  25  8
26  32  8
27  33  8
28  34  8
29  35  8
32  34  8
33  35  8
6  14  8
6  20  8
7  15  8
7  21  8
9  38  5

$$$$
