44460932
  -OEChem-03202506092D

119131  0     1  0  0  0  0  0999 V2000
    1.7500   -6.3500    0.0000 O   0  0  0  0  0  0  0  0  0  0  0  0
    3.5000   -8.1500    0.0000 O   0  0  0  0  0  0  0  0  0  0  0  0
    4.3750   -9.8000    0.0000 O   0  0  0  0  0  0  0  0  0  0  0  0
    7.0000    0.0000    0.0000 O   0  0  0  0  0  0  0  0  0  0  0  0
    6.1250  -12.0000    0.0000 O   0  0  0  0  0  0  0  0  0  0  0  0
    7.8750  -14.3500    0.0000 O   0  0  0  0  0  0  0  0  0  0  0  0
    8.1667   -8.0000    0.0000 O   0  0  0  0  0  0  0  0  0  0  0  0
    0.8750  -10.3500    0.0000 O   0  0  0  0  0  0  0  0  0  0  0  0
   11.3750  -11.8000    0.0000 O   0  0  0  0  0  0  0  0  0  0  0  0
    9.6250  -10.1500    0.0000 O   0  0  0  0  0  0  0  0  0  0  0  0
    0.8750  -12.3500    0.0000 O   0  0  0  0  0  0  0  0  0  0  0  0
   11.3750  -13.8000    0.0000 O   0  0  0  0  0  0  0  0  0  0  0  0
    0.7778  -18.3500    0.0000 O   0  0  0  0  0  0  0  0  0  0  0  0
   13.2222  -16.3500    0.0000 O   0  0  0  0  0  0  0  0  0  0  0  0
    2.6250  -14.1500    0.0000 O   0  0  0  0  0  0  0  0  0  0  0  0
    7.0000  -16.3500    0.0000 O   0  0  0  0  0  0  0  0  0  0  0  0
    5.5000  -24.1500    0.0000 O   0  0  0  0  0  0  0  0  0  0  0  0
    2.3333  -26.1500    0.0000 O   0  0  0  0  0  0  0  0  0  0  0  0
    1.9091  -20.1500    0.0000 O   0  0  0  0  0  0  0  0  0  0  0  0
   10.1111  -17.8000    0.0000 O   0  0  0  0  0  0  0  0  0  0  0  0
    1.6154  -22.1500    0.0000 O   0  0  0  0  0  0  0  0  0  0  0  0
    4.8462  -22.3500    0.0000 O   0  0  0  0  0  0  0  0  0  0  0  0
   10.2308  -22.1500    0.0000 O   0  0  0  0  0  0  0  0  0  0  0  0
    4.4546  -20.0000    0.0000 O   0  0  0  0  0  0  0  0  0  0  0  0
    3.5000  -24.0000    0.0000 O   0  0  0  0  0  0  0  0  0  0  0  0
    8.5556  -26.1500    0.0000 O   0  0  0  0  0  0  0  0  0  0  0  0
    8.7500  -27.8000    0.0000 O   0  0  0  0  0  0  0  0  0  0  0  0
    9.5454  -20.0000    0.0000 O   0  0  0  0  0  0  0  0  0  0  0  0
    6.5000  -23.8000    0.0000 O   0  0  0  0  0  0  0  0  0  0  0  0
    3.7692  -22.0000    0.0000 O   0  0  0  0  0  0  0  0  0  0  0  0
   12.2500  -28.0000    0.0000 O   0  0  0  0  0  0  0  0  0  0  0  0
    9.5000  -24.1500    0.0000 O   0  0  0  0  0  0  0  0  0  0  0  0
    7.0000  -26.3500    0.0000 O   0  0  0  0  0  0  0  0  0  0  0  0
   13.5000  -24.1500    0.0000 O   0  0  0  0  0  0  0  0  0  0  0  0
    2.3333   -4.3500    0.0000 C   0  0  3  0  0  0  0  0  0  0  0  0
    5.2500   -6.1500    0.0000 C   0  0  3  0  0  0  0  0  0  0  0  0
    5.8333   -7.8000    0.0000 C   0  0  3  0  0  0  0  0  0  0  0  0
    3.5000   -2.3500    0.0000 C   0  0  1  0  0  0  0  0  0  0  0  0
    6.1250  -10.0000    0.0000 C   0  0  3  0  0  0  0  0  0  0  0  0
    7.0000   -4.1500    0.0000 C   0  0  0  0  0  0  0  0  0  0  0  0
   12.2500   -6.0000    0.0000 C   0  0  0  0  0  0  0  0  0  0  0  0
   12.8333   -8.1500    0.0000 C   0  0  0  0  0  0  0  0  0  0  0  0
    1.1667   -8.3500    0.0000 C   0  0  0  0  0  0  0  0  0  0  0  0
    7.8750  -12.3500    0.0000 C   0  0  0  0  0  0  0  0  0  0  0  0
   13.1250  -10.0000    0.0000 C   0  0  0  0  0  0  0  0  0  0  0  0
    8.7500   -5.8000    0.0000 C   0  0  0  0  0  0  0  0  0  0  0  0
    2.6250  -12.1500    0.0000 C   0  0  0  0  0  0  0  0  0  0  0  0
    2.6250  -10.1500    0.0000 C   0  0  0  0  0  0  0  0  0  0  0  0
   11.3750   -9.8000    0.0000 C   0  0  0  0  0  0  0  0  0  0  0  0
   10.5000   -8.3500    0.0000 C   0  0  0  0  0  0  0  0  0  0  0  0
    0.8750  -14.3500    0.0000 C   0  0  0  0  0  0  0  0  0  0  0  0
   13.1250  -12.0000    0.0000 C   0  0  0  0  0  0  0  0  0  0  0  0
    2.3333  -16.1500    0.0000 C   0  0  0  0  0  0  0  0  0  0  0  0
    4.3750  -11.8000    0.0000 C   0  0  0  0  0  0  0  0  0  0  0  0
    0.7778  -16.3500    0.0000 C   0  0  0  0  0  0  0  0  0  0  0  0
    6.1250  -14.0000    0.0000 C   0  0  0  0  0  0  0  0  0  0  0  0
    8.5556  -16.1500    0.0000 C   0  0  0  0  0  0  0  0  0  0  0  0
   13.1250  -14.0000    0.0000 C   0  0  0  0  0  0  0  0  0  0  0  0
    4.3750  -13.8000    0.0000 C   0  0  0  0  0  0  0  0  0  0  0  0
    3.8889  -15.8000    0.0000 C   0  0  0  0  0  0  0  0  0  0  0  0
    2.3333  -18.1500    0.0000 C   0  0  0  0  0  0  0  0  0  0  0  0
    5.4444  -18.0000    0.0000 C   0  0  0  0  0  0  0  0  0  0  0  0
    8.0769  -22.0000    0.0000 C   0  0  0  0  0  0  0  0  0  0  0  0
    7.5000  -24.0000    0.0000 C   0  0  0  0  0  0  0  0  0  0  0  0
    8.2727  -19.8000    0.0000 C   0  0  0  0  0  0  0  0  0  0  0  0
    8.5556  -18.1500    0.0000 C   0  0  0  0  0  0  0  0  0  0  0  0
   10.1111  -15.8000    0.0000 C   0  0  0  0  0  0  0  0  0  0  0  0
   12.5000  -24.3500    0.0000 C   0  0  0  0  0  0  0  0  0  0  0  0
   12.3846  -22.0000    0.0000 C   0  0  0  0  0  0  0  0  0  0  0  0
    4.5000  -24.3500    0.0000 C   0  0  0  0  0  0  0  0  0  0  0  0
   11.6667  -18.0000    0.0000 C   0  0  0  0  0  0  0  0  0  0  0  0
   12.0909  -20.1500    0.0000 C   0  0  0  0  0  0  0  0  0  0  0  0
    3.8889  -25.8000    0.0000 C   0  0  0  0  0  0  0  0  0  0  0  0
    5.4444  -16.0000    0.0000 C   0  0  0  0  0  0  0  0  0  0  0  0
    3.1818  -19.8000    0.0000 C   0  0  0  0  0  0  0  0  0  0  0  0
    7.0000  -20.1500    0.0000 C   0  0  0  0  0  0  0  0  0  0  0  0
   10.8182  -20.3500    0.0000 C   0  0  0  0  0  0  0  0  0  0  0  0
    3.8889  -17.8000    0.0000 C   0  0  0  0  0  0  0  0  0  0  0  0
    5.9231  -22.1500    0.0000 C   0  0  0  0  0  0  0  0  0  0  0  0
    7.0000  -21.8000    0.0000 C   0  0  0  0  0  0  0  0  0  0  0  0
   11.5000  -24.0000    0.0000 C   0  0  0  0  0  0  0  0  0  0  0  0
   10.1111  -25.8000    0.0000 C   0  0  0  0  0  0  0  0  0  0  0  0
   11.6667  -26.0000    0.0000 C   0  0  0  0  0  0  0  0  0  0  0  0
    7.0000  -18.3500    0.0000 C   0  0  0  0  0  0  0  0  0  0  0  0
    5.7273  -20.3500    0.0000 C   0  0  0  0  0  0  0  0  0  0  0  0
   11.3077  -21.8000    0.0000 C   0  0  0  0  0  0  0  0  0  0  0  0
   13.3636  -19.8000    0.0000 C   0  0  0  0  0  0  0  0  0  0  0  0
   10.5000  -23.8000    0.0000 C   0  0  0  0  0  0  0  0  0  0  0  0
   13.4615  -22.3500    0.0000 C   0  0  0  0  0  0  0  0  0  0  0  0
    0.6247   -3.6156    0.0000 H   0  0  0  0  0  0  0  0  0  0  0  0
    6.6975   -4.9822    0.0000 H   0  0  0  0  0  0  0  0  0  0  0  0
    3.9931   -7.5311    0.0000 H   0  0  0  0  0  0  0  0  0  0  0  0
   11.6667   -3.8000    0.0000 H   0  0  0  0  0  0  0  0  0  0  0  0
    7.8480   -9.2999    0.0000 H   0  0  0  0  0  0  0  0  0  0  0  0
    9.6460  -12.9178    0.0000 H   0  0  0  0  0  0  0  0  0  0  0  0
    8.9563  -10.8369    0.0000 H   0  0  0  0  0  0  0  0  0  0  0  0
   10.5000   -2.1500    0.0000 H   0  0  0  0  0  0  0  0  0  0  0  0
    7.8750  -10.3500    0.0000 H   0  0  0  0  0  0  0  0  0  0  0  0
    9.6250  -14.1500    0.0000 H   0  0  0  0  0  0  0  0  0  0  0  0
    6.8424  -18.8737    0.0000 H   0  0  0  0  0  0  0  0  0  0  0  0
    9.6250  -12.1500    0.0000 H   0  0  0  0  0  0  0  0  0  0  0  0
    7.0597  -15.0782    0.0000 H   0  0  0  0  0  0  0  0  0  0  0  0
   11.6667  -16.0000    0.0000 H   0  0  0  0  0  0  0  0  0  0  0  0
    0.6364  -20.3500    0.0000 H   0  0  0  0  0  0  0  0  0  0  0  0
   13.2222  -18.3500    0.0000 H   0  0  0  0  0  0  0  0  0  0  0  0
   15.0787  -19.0806    0.0000 H   0  0  0  0  0  0  0  0  0  0  0  0
    0.5385  -22.3500    0.0000 H   0  0  0  0  0  0  0  0  0  0  0  0
    0.5000  -24.3500    0.0000 H   0  0  0  0  0  0  0  0  0  0  0  0
    2.5000  -23.8000    0.0000 H   0  0  0  0  0  0  0  0  0  0  0  0
    8.5000  -24.3500    0.0000 H   0  0  0  0  0  0  0  0  0  0  0  0
    2.6923  -21.8000    0.0000 H   0  0  0  0  0  0  0  0  0  0  0  0
    0.7778  -26.3500    0.0000 H   0  0  0  0  0  0  0  0  0  0  0  0
    5.2500  -28.1500    0.0000 H   0  0  0  0  0  0  0  0  0  0  0  0
    7.0000  -30.3500    0.0000 H   0  0  0  0  0  0  0  0  0  0  0  0
    9.1538  -22.3500    0.0000 H   0  0  0  0  0  0  0  0  0  0  0  0
    1.5000  -24.1500    0.0000 H   0  0  0  0  0  0  0  0  0  0  0  0
    5.4444  -26.0000    0.0000 H   0  0  0  0  0  0  0  0  0  0  0  0
    1.7500  -28.3500    0.0000 H   0  0  0  0  0  0  0  0  0  0  0  0
   13.2222  -26.3500    0.0000 H   0  0  0  0  0  0  0  0  0  0  0  0
  1 35  1  0  0  0  0
  1 43  1  0  0  0  0
  2 36  1  0  0  0  0
  2 48  1  0  0  0  0
  3 37  1  0  0  0  0
  3 54  1  0  0  0  0
  4 38  1  0  0  0  0
  4 97  1  0  0  0  0
  5 39  1  0  0  0  0
  5 56  1  0  0  0  0
  6 44  1  0  0  0  0
  6 67  1  0  0  0  0
  7 46  1  0  0  0  0
  7 98  1  0  0  0  0
  8 43  2  0  0  0  0
  9 49  1  0  0  0  0
  9 99  1  0  0  0  0
 10 50  1  0  0  0  0
 10101  1  0  0  0  0
 11 48  2  0  0  0  0
 12 52  1  0  0  0  0
 12103  1  0  0  0  0
 13 55  1  0  0  0  0
 13104  1  0  0  0  0
 14 58  1  0  0  0  0
 14105  1  0  0  0  0
 15 54  2  0  0  0  0
 16 56  2  0  0  0  0
 17 73  1  0  0  0  0
 17 80  1  0  0  0  0
 18 70  1  0  0  0  0
 18 83  1  0  0  0  0
 19 61  1  0  0  0  0
 19107  1  0  0  0  0
 20 67  2  0  0  0  0
 21 75  1  0  0  0  0
 21108  1  0  0  0  0
 22 76  1  0  0  0  0
 22109  1  0  0  0  0
 23 77  1  0  0  0  0
 23110  1  0  0  0  0
 24 78  1  0  0  0  0
 24111  1  0  0  0  0
 25 79  1  0  0  0  0
 25112  1  0  0  0  0
 26 81  1  0  0  0  0
 26113  1  0  0  0  0
 27 82  1  0  0  0  0
 27114  1  0  0  0  0
 28 84  1  0  0  0  0
 28115  1  0  0  0  0
 29 80  2  0  0  0  0
 30 85  1  0  0  0  0
 30116  1  0  0  0  0
 31 83  2  0  0  0  0
 32 86  1  0  0  0  0
 32117  1  0  0  0  0
 33 88  1  0  0  0  0
 33118  1  0  0  0  0
 34 89  1  0  0  0  0
 34119  1  0  0  0  0
 35 36  1  0  0  0  0
 35 38  1  0  0  0  0
 35 90  1  0  0  0  0
 36 37  1  0  0  0  0
 36 91  1  0  0  0  0
 37 39  1  0  0  0  0
 37 92  1  0  0  0  0
 38 40  1  0  0  0  0
 38 93  1  0  0  0  0
 39 44  1  0  0  0  0
 39 94  1  0  0  0  0
 40 41  1  0  0  0  0
 40 46  2  0  0  0  0
 41 42  2  0  0  0  0
 41 43  1  0  0  0  0
 42 45  1  0  0  0  0
 42 49  1  0  0  0  0
 44 95  1  0  0  0  0
 44 96  1  0  0  0  0
 45 47  1  0  0  0  0
 45 52  2  0  0  0  0
 46 50  1  0  0  0  0
 47 48  1  0  0  0  0
 47 51  2  0  0  0  0
 49 50  2  0  0  0  0
 51 53  1  0  0  0  0
 51 55  1  0  0  0  0
 52 58  1  0  0  0  0
 53 57  1  0  0  0  0
 53 61  2  0  0  0  0
 54 59  1  0  0  0  0
 55 58  2  0  0  0  0
 56 57  1  0  0  0  0
 57 66  2  0  0  0  0
 59 60  1  0  0  0  0
 59 74  2  0  0  0  0
 60 62  1  0  0  0  0
 60 78  2  0  0  0  0
 61 75  1  0  0  0  0
 62 65  1  0  0  0  0
 62 76  2  0  0  0  0
 63 64  1  0  0  0  0
 63 65  2  0  0  0  0
 63 70  1  0  0  0  0
 64 68  2  0  0  0  0
 64 73  1  0  0  0  0
 65 80  1  0  0  0  0
 66 77  1  0  0  0  0
 66100  1  0  0  0  0
 67 71  1  0  0  0  0
 68 69  1  0  0  0  0
 68 83  1  0  0  0  0
 69 72  1  0  0  0  0
 69 81  2  0  0  0  0
 70 79  2  0  0  0  0
 71 72  1  0  0  0  0
 71 87  2  0  0  0  0
 72 86  2  0  0  0  0
 73 82  2  0  0  0  0
 74 84  1  0  0  0  0
 74102  1  0  0  0  0
 75 77  2  0  0  0  0
 76 79  1  0  0  0  0
 78 85  1  0  0  0  0
 81 82  1  0  0  0  0
 84 85  2  0  0  0  0
 86 88  1  0  0  0  0
 87 89  1  0  0  0  0
 87106  1  0  0  0  0
 88 89  2  0  0  0  0
M  END
> <PUBCHEM_COMPOUND_CID>
44460932

> <PUBCHEM_COMPOUND_CANONICALIZED>
1

> <PUBCHEM_CACTVS_COMPLEXITY>
2840

> <PUBCHEM_CACTVS_HBOND_ACCEPTOR>
34

> <PUBCHEM_CACTVS_HBOND_DONOR>
20

> <PUBCHEM_CACTVS_ROTATABLE_BOND>
0

> <PUBCHEM_CACTVS_SUBSKEYS>
AAADceB8PgAAAAAAAAAAAAAAAAAAAAAAAAA0aNGDAAAAAACRVAAAGgAACAAADBSgmAIwDoAABgCIAiDSCAACCAAkIAAAiAEGiMgNNzKGNBqCeyOlwBULuYfK7PzOoAADCAAYQABAAAYQADCAAAAAAAAAAA==

> <PUBCHEM_IUPAC_OPENEYE_NAME>
(62R)-7,8,9,12,13,24,25,28,29,30,41,42,43,46,47,48,51,52,53,62-icosahydroxy-3,15,22,34,37,57,59-heptaoxatridecacyclo[43.13.3.154,58.02,36.05,10.011,20.014,19.017,26.018,23.027,32.039,44.049,61.050,55]dohexaconta-5,7,9,11,13,17,19,23,25,27,29,31,39,41,43,45(61),46,48,50(55),51,53-henicosaene-4,16,21,33,38,56,60-heptone

> <PUBCHEM_IUPAC_CAS_NAME>
(62R)-7,8,9,12,13,24,25,28,29,30,41,42,43,46,47,48,51,52,53,62-eicosahydroxy-3,15,22,34,37,57,59-heptaoxatridecacyclo[43.13.3.154,58.02,36.05,10.011,20.014,19.017,26.018,23.027,32.039,44.049,61.050,55]dohexaconta-5,7,9,11,13,17,19,23,25,27,29,31,39,41,43,45(61),46,48,50(55),51,53-heneicosaene-4,16,21,33,38,56,60-heptone

> <PUBCHEM_IUPAC_NAME_MARKUP>
(62<I>R</I>)-7,8,9,12,13,24,25,28,29,30,41,42,43,46,47,48,51,52,53,62-icosahydroxy-3,15,22,34,37,57,59-heptaoxatridecacyclo[43.13.3.1<SUP>54,58</SUP>.0<SUP>2,36</SUP>.0<SUP>5,10</SUP>.0<SUP>11,20</SUP>.0<SUP>14,19</SUP>.0<SUP>17,26</SUP>.0<SUP>18,23</SUP>.0<SUP>27,32</SUP>.0<SUP>39,44</SUP>.0<SUP>49,61</SUP>.0<SUP>50,55</SUP>]dohexaconta-5,7,9,11,13,17,19,23,25,27,29,31,39,41,43,45(61),46,48,50(55),51,53-henicosaene-4,16,21,33,38,56,60-heptone

> <PUBCHEM_IUPAC_NAME>
(62R)-7,8,9,12,13,24,25,28,29,30,41,42,43,46,47,48,51,52,53,62-icosahydroxy-3,15,22,34,37,57,59-heptaoxatridecacyclo[43.13.3.154,58.02,36.05,10.011,20.014,19.017,26.018,23.027,32.039,44.049,61.050,55]dohexaconta-5,7,9,11,13,17,19,23,25,27,29,31,39,41,43,45(61),46,48,50(55),51,53-henicosaene-4,16,21,33,38,56,60-heptone

> <PUBCHEM_IUPAC_SYSTEMATIC_NAME>
(62R)-7,8,9,12,13,24,25,28,29,30,41,42,43,46,47,48,51,52,53,62-icosakis(oxidanyl)-3,15,22,34,37,57,59-heptaoxatridecacyclo[43.13.3.154,58.02,36.05,10.011,20.014,19.017,26.018,23.027,32.039,44.049,61.050,55]dohexaconta-5,7,9,11,13,17,19,23,25,27,29,31,39,41,43,45(61),46,48,50(55),51,53-henicosaene-4,16,21,33,38,56,60-heptone

> <PUBCHEM_IUPAC_TRADITIONAL_NAME>
(62R)-7,8,9,12,13,24,25,28,29,30,41,42,43,46,47,48,51,52,53,62-eicosahydroxy-3,15,22,34,37,57,59-heptaoxatridecacyclo[43.13.3.154,58.02,36.05,10.011,20.014,19.017,26.018,23.027,32.039,44.049,61.050,55]dohexaconta-5,7,9,11,13,17,19,23,25,27,29,31,39,41,43,45(61),46,48,50(55),51,53-heneicosaene-4,16,21,33,38,56,60-heptone

> <PUBCHEM_IUPAC_INCHI>
InChI=1S/C55H30O34/c56-8-1-5-12(30(62)27(8)59)16-23-20-21-24(54(81)87-45(20)42(74)36(16)68)17(37(69)43(75)46(21)86-53(23)80)14-7(3-10(58)29(61)32(14)64)51(78)85-44-11(4-83-49(5)76)84-50(77)6-2-9(57)28(60)31(63)13(6)15-22-18(34(66)40(72)33(15)65)19-25-26(38(70)41(73)35(19)67)39(71)47(88-55(25)82)48(44)89-52(22)79/h1-3,11,39,44,47-48,56-75H,4H2/t11?,39-,44?,47?,48?/m1/s1

> <PUBCHEM_IUPAC_INCHIKEY>
MRWCOZHELKOWPI-MCQCZDFASA-N

> <PUBCHEM_XLOGP3_AA>
1.8

> <PUBCHEM_EXACT_MASS>
1234.0618480

> <PUBCHEM_MOLECULAR_FORMULA>
C55H30O34

> <PUBCHEM_MOLECULAR_WEIGHT>
1234.8

> <PUBCHEM_SMILES>
C1C2C(C3C4[C@@H](C5=C(C(=C(C(=C5C(=O)O4)C6=C(C(=C(C(=C6C(=O)O3)C7=C(C(=C(C=C7C(=O)O2)O)O)O)O)O)O)O)O)O)O)OC(=O)C8=CC(=C(C(=C8C9=C(C(=C2C3=C9C(=O)OC4=C(C(=C(C5=C(C(=C(C=C5C(=O)O1)O)O)O)C(=C34)C(=O)O2)O)O)O)O)O)O)O

> <PUBCHEM_OPENEYE_CAN_SMILES>
C1C2C(C3C4C(C5=C(C(=C(C(=C5C(=O)O4)C6=C(C(=C(C(=C6C(=O)O3)C7=C(C(=C(C=C7C(=O)O2)O)O)O)O)O)O)O)O)O)O)OC(=O)C8=CC(=C(C(=C8C9=C(C(=C2C3=C9C(=O)OC4=C(C(=C(C5=C(C(=C(C=C5C(=O)O1)O)O)O)C(=C34)C(=O)O2)O)O)O)O)O)O)O

> <PUBCHEM_OPENEYE_ISO_SMILES>
C1C2C(C3C4[C@@H](C5=C(C(=C(C(=C5C(=O)O4)C6=C(C(=C(C(=C6C(=O)O3)C7=C(C(=C(C=C7C(=O)O2)O)O)O)O)O)O)O)O)O)O)OC(=O)C8=CC(=C(C(=C8C9=C(C(=C2C3=C9C(=O)OC4=C(C(=C(C5=C(C(=C(C=C5C(=O)O1)O)O)O)C(=C34)C(=O)O2)O)O)O)O)O)O)O

> <PUBCHEM_CACTVS_TPSA>
589

> <PUBCHEM_MONOISOTOPIC_WEIGHT>
1234.0618480

> <PUBCHEM_TOTAL_CHARGE>
0

> <PUBCHEM_HEAVY_ATOM_COUNT>
89

> <PUBCHEM_ATOM_DEF_STEREO_COUNT>
1

> <PUBCHEM_ATOM_UDEF_STEREO_COUNT>
4

> <PUBCHEM_BOND_DEF_STEREO_COUNT>
0

> <PUBCHEM_BOND_UDEF_STEREO_COUNT>
0

> <PUBCHEM_ISOTOPIC_ATOM_COUNT>
0

> <PUBCHEM_COMPONENT_COUNT>
1

> <PUBCHEM_CACTVS_TAUTO_COUNT>
-1

> <PUBCHEM_COORDINATE_TYPE>
1
5
255

> <PUBCHEM_BONDANNOTATIONS>
35  1  3
17  73  8
17  80  8
18  70  8
18  83  8
36  2  3
37  3  3
39  44  3
40  41  8
40  46  8
41  42  8
42  49  8
45  47  8
45  52  8
46  50  8
47  51  8
49  50  8
51  55  8
52  58  8
53  57  8
53  61  8
55  58  8
57  66  8
59  60  8
59  74  8
60  78  8
61  75  8
62  65  8
62  76  8
63  64  8
63  65  8
63  70  8
64  68  8
64  73  8
65  80  8
66  77  8
68  69  8
68  83  8
69  81  8
70  79  8
71  72  8
71  87  8
72  86  8
73  82  8
74  84  8
75  77  8
76  79  8
78  85  8
81  82  8
84  85  8
86  88  8
87  89  8
88  89  8

$$$$
