49830398
  -OEChem-03202501042D

 63 67  0     1  0  0  0  0  0999 V2000
    2.7996   -0.0238    0.0000 F   0  0  0  0  0  0  0  0  0  0  0  0
    2.0000    3.4839    0.0000 O   0  0  0  0  0  0  0  0  0  0  0  0
    3.6449    1.7888    0.0000 N   0  0  0  0  0  0  0  0  0  0  0  0
    2.7320    5.0536    0.0000 N   0  0  0  0  0  0  0  0  0  0  0  0
    5.2146    1.0568    0.0000 N   0  0  0  0  0  0  0  0  0  0  0  0
    9.0787   -2.9518    0.0000 N   0  0  0  0  0  0  0  0  0  0  0  0
   10.2259   -4.5901    0.0000 N   0  0  0  0  0  0  0  0  0  0  0  0
    5.3656   -0.6686    0.0000 N   0  0  0  0  0  0  0  0  0  0  0  0
    6.7844    0.3248    0.0000 N   0  0  0  0  0  0  0  0  0  0  0  0
    5.4402    3.2871    0.0000 C   0  0  3  0  0  0  0  0  0  0  0  0
    5.6990    4.2531    0.0000 C   0  0  3  0  0  0  0  0  0  0  0  0
    4.0675    2.6951    0.0000 C   0  0  3  0  0  0  0  0  0  0  0  0
    3.7255    3.6348    0.0000 C   0  0  3  0  0  0  0  0  0  0  0  0
    4.9624    5.2357    0.0000 C   0  0  0  0  0  0  0  0  0  0  0  0
    6.8391    2.7783    0.0000 C   0  0  0  0  0  0  0  0  0  0  0  0
    7.0979    3.7442    0.0000 C   0  0  0  0  0  0  0  0  0  0  0  0
    2.8192    4.0574    0.0000 C   0  0  0  0  0  0  0  0  0  0  0  0
    4.2184    0.9697    0.0000 C   0  0  0  0  0  0  0  0  0  0  0  0
    3.7958    0.0634    0.0000 C   0  0  0  0  0  0  0  0  0  0  0  0
    5.7882    0.2377    0.0000 C   0  0  0  0  0  0  0  0  0  0  0  0
    4.3694   -0.7558    0.0000 C   0  0  0  0  0  0  0  0  0  0  0  0
   10.0749   -2.8646    0.0000 C   0  0  0  0  0  0  0  0  0  0  0  0
    8.6561   -3.8581    0.0000 C   0  0  0  0  0  0  0  0  0  0  0  0
   10.6485   -3.6838    0.0000 C   0  0  0  0  0  0  0  0  0  0  0  0
    9.2297   -4.6772    0.0000 C   0  0  0  0  0  0  0  0  0  0  0  0
    8.5051   -2.1326    0.0000 C   0  0  0  0  0  0  0  0  0  0  0  0
    8.9278   -1.2263    0.0000 C   0  0  0  0  0  0  0  0  0  0  0  0
    7.3580   -0.4943    0.0000 C   0  0  0  0  0  0  0  0  0  0  0  0
   10.7994   -5.4092    0.0000 C   0  0  0  0  0  0  0  0  0  0  0  0
    7.5089   -2.2198    0.0000 C   0  0  0  0  0  0  0  0  0  0  0  0
    8.3542   -0.4072    0.0000 C   0  0  0  0  0  0  0  0  0  0  0  0
    6.9354   -1.4006    0.0000 C   0  0  0  0  0  0  0  0  0  0  0  0
    9.9240   -1.1392    0.0000 C   0  0  0  0  0  0  0  0  0  0  0  0
    5.4583    2.6674    0.0000 H   0  0  0  0  0  0  0  0  0  0  0  0
    5.6850    3.6332    0.0000 H   0  0  0  0  0  0  0  0  0  0  0  0
    4.4995    2.2504    0.0000 H   0  0  0  0  0  0  0  0  0  0  0  0
    3.7666    4.2534    0.0000 H   0  0  0  0  0  0  0  0  0  0  0  0
    5.2802    5.7680    0.0000 H   0  0  0  0  0  0  0  0  0  0  0  0
    4.3492    5.3276    0.0000 H   0  0  0  0  0  0  0  0  0  0  0  0
    7.1255    2.2284    0.0000 H   0  0  0  0  0  0  0  0  0  0  0  0
    7.6479    4.0306    0.0000 H   0  0  0  0  0  0  0  0  0  0  0  0
    3.0272    1.7348    0.0000 H   0  0  0  0  0  0  0  0  0  0  0  0
    2.1701    5.3156    0.0000 H   0  0  0  0  0  0  0  0  0  0  0  0
    3.2399    5.4092    0.0000 H   0  0  0  0  0  0  0  0  0  0  0  0
   10.6368   -2.6026    0.0000 H   0  0  0  0  0  0  0  0  0  0  0  0
    9.9144   -2.2658    0.0000 H   0  0  0  0  0  0  0  0  0  0  0  0
    8.1482   -3.5025    0.0000 H   0  0  0  0  0  0  0  0  0  0  0  0
    8.2177   -4.2965    0.0000 H   0  0  0  0  0  0  0  0  0  0  0  0
   11.1564   -4.0394    0.0000 H   0  0  0  0  0  0  0  0  0  0  0  0
   11.0869   -3.2454    0.0000 H   0  0  0  0  0  0  0  0  0  0  0  0
    8.6678   -4.9393    0.0000 H   0  0  0  0  0  0  0  0  0  0  0  0
    9.3901   -5.2761    0.0000 H   0  0  0  0  0  0  0  0  0  0  0  0
    4.1074   -1.3177    0.0000 H   0  0  0  0  0  0  0  0  0  0  0  0
    7.0464    0.8867    0.0000 H   0  0  0  0  0  0  0  0  0  0  0  0
   10.2916   -5.7649    0.0000 H   0  0  0  0  0  0  0  0  0  0  0  0
   11.1551   -5.9171    0.0000 H   0  0  0  0  0  0  0  0  0  0  0  0
   11.3073   -5.0536    0.0000 H   0  0  0  0  0  0  0  0  0  0  0  0
    7.2469   -2.7817    0.0000 H   0  0  0  0  0  0  0  0  0  0  0  0
    8.6162    0.1547    0.0000 H   0  0  0  0  0  0  0  0  0  0  0  0
    6.3177   -1.4547    0.0000 H   0  0  0  0  0  0  0  0  0  0  0  0
    9.9780   -1.7568    0.0000 H   0  0  0  0  0  0  0  0  0  0  0  0
   10.5416   -1.0851    0.0000 H   0  0  0  0  0  0  0  0  0  0  0  0
    9.8699   -0.5215    0.0000 H   0  0  0  0  0  0  0  0  0  0  0  0
  1 19  1  0  0  0  0
  2 17  2  0  0  0  0
  3 12  1  0  0  0  0
  3 18  1  0  0  0  0
  3 42  1  0  0  0  0
  4 17  1  0  0  0  0
  4 43  1  0  0  0  0
  4 44  1  0  0  0  0
  5 18  2  0  0  0  0
  5 20  1  0  0  0  0
  6 22  1  0  0  0  0
  6 23  1  0  0  0  0
  6 26  1  0  0  0  0
  7 24  1  0  0  0  0
  7 25  1  0  0  0  0
  7 29  1  0  0  0  0
  8 20  2  0  0  0  0
  8 21  1  0  0  0  0
  9 20  1  0  0  0  0
  9 28  1  0  0  0  0
  9 54  1  0  0  0  0
 10 12  1  0  0  0  0
 10 14  1  0  0  0  0
 10 15  1  0  0  0  0
 10 34  1  0  0  0  0
 11 13  1  0  0  0  0
 11 14  1  0  0  0  0
 11 16  1  0  0  0  0
 11 35  1  0  0  0  0
 12 13  1  0  0  0  0
 12 36  1  0  0  0  0
 13 17  1  0  0  0  0
 13 37  1  0  0  0  0
 14 38  1  0  0  0  0
 14 39  1  0  0  0  0
 15 16  2  0  0  0  0
 15 40  1  0  0  0  0
 16 41  1  0  0  0  0
 18 19  1  0  0  0  0
 19 21  2  0  0  0  0
 21 53  1  0  0  0  0
 22 24  1  0  0  0  0
 22 45  1  0  0  0  0
 22 46  1  0  0  0  0
 23 25  1  0  0  0  0
 23 47  1  0  0  0  0
 23 48  1  0  0  0  0
 24 49  1  0  0  0  0
 24 50  1  0  0  0  0
 25 51  1  0  0  0  0
 25 52  1  0  0  0  0
 26 27  2  0  0  0  0
 26 30  1  0  0  0  0
 27 31  1  0  0  0  0
 27 33  1  0  0  0  0
 28 31  2  0  0  0  0
 28 32  1  0  0  0  0
 29 55  1  0  0  0  0
 29 56  1  0  0  0  0
 29 57  1  0  0  0  0
 30 32  2  0  0  0  0
 30 58  1  0  0  0  0
 31 59  1  0  0  0  0
 32 60  1  0  0  0  0
 33 61  1  0  0  0  0
 33 62  1  0  0  0  0
 33 63  1  0  0  0  0
M  END
> <PUBCHEM_COMPOUND_CID>
49830398

> <PUBCHEM_COMPOUND_CANONICALIZED>
1

> <PUBCHEM_CACTVS_COMPLEXITY>
730

> <PUBCHEM_CACTVS_HBOND_ACCEPTOR>
8

> <PUBCHEM_CACTVS_HBOND_DONOR>
3

> <PUBCHEM_CACTVS_ROTATABLE_BOND>
6

> <PUBCHEM_CACTVS_SUBSKEYS>
AAADceB7oQAAAAAAAAAAAAAAAAAAAYIAAAA8WIEAAAAAAAABwAAAHwAQAAAADSjBmgw/8JfIEACoAjd3dACCgCkxAqAJ2KEoZJiIaLrA2dGUJAhokALIyCcYiACOgACAQAACAAAAAQCAAAQAASAACQAAAA==

> <PUBCHEM_IUPAC_OPENEYE_NAME>
3-[[5-fluoro-2-[3-methyl-4-(4-methylpiperazin-1-yl)anilino]pyrimidin-4-yl]amino]bicyclo[2.2.1]hept-5-ene-2-carboxamide

> <PUBCHEM_IUPAC_CAS_NAME>
3-[[5-fluoro-2-[3-methyl-4-(4-methyl-1-piperazinyl)anilino]-4-pyrimidinyl]amino]-2-bicyclo[2.2.1]hept-5-enecarboxamide

> <PUBCHEM_IUPAC_NAME_MARKUP>
3-[[5-fluoro-2-[3-methyl-4-(4-methylpiperazin-1-yl)anilino]pyrimidin-4-yl]amino]bicyclo[2.2.1]hept-5-ene-2-carboxamide

> <PUBCHEM_IUPAC_NAME>
3-[[5-fluoro-2-[3-methyl-4-(4-methylpiperazin-1-yl)anilino]pyrimidin-4-yl]amino]bicyclo[2.2.1]hept-5-ene-2-carboxamide

> <PUBCHEM_IUPAC_SYSTEMATIC_NAME>
3-[[5-fluoranyl-2-[[3-methyl-4-(4-methylpiperazin-1-yl)phenyl]amino]pyrimidin-4-yl]amino]bicyclo[2.2.1]hept-5-ene-2-carboxamide

> <PUBCHEM_IUPAC_TRADITIONAL_NAME>
3-[[5-fluoro-2-[3-methyl-4-(4-methylpiperazino)anilino]pyrimidin-4-yl]amino]bicyclo[2.2.1]hept-5-ene-2-carboxamide

> <PUBCHEM_IUPAC_INCHI>
InChI=1S/C24H30FN7O/c1-14-11-17(5-6-19(14)32-9-7-31(2)8-10-32)28-24-27-13-18(25)23(30-24)29-21-16-4-3-15(12-16)20(21)22(26)33/h3-6,11,13,15-16,20-21H,7-10,12H2,1-2H3,(H2,26,33)(H2,27,28,29,30)

> <PUBCHEM_IUPAC_INCHIKEY>
KSOVGRCOLZZTPF-UHFFFAOYSA-N

> <PUBCHEM_XLOGP3_AA>
3.2

> <PUBCHEM_EXACT_MASS>
451.24958677

> <PUBCHEM_MOLECULAR_FORMULA>
C24H30FN7O

> <PUBCHEM_MOLECULAR_WEIGHT>
451.5

> <PUBCHEM_SMILES>
CC1=C(C=CC(=C1)NC2=NC=C(C(=N2)NC3C4CC(C3C(=O)N)C=C4)F)N5CCN(CC5)C

> <PUBCHEM_OPENEYE_CAN_SMILES>
CC1=C(C=CC(=C1)NC2=NC=C(C(=N2)NC3C4CC(C3C(=O)N)C=C4)F)N5CCN(CC5)C

> <PUBCHEM_OPENEYE_ISO_SMILES>
CC1=C(C=CC(=C1)NC2=NC=C(C(=N2)NC3C4CC(C3C(=O)N)C=C4)F)N5CCN(CC5)C

> <PUBCHEM_CACTVS_TPSA>
99.4

> <PUBCHEM_MONOISOTOPIC_WEIGHT>
451.24958677

> <PUBCHEM_TOTAL_CHARGE>
0

> <PUBCHEM_HEAVY_ATOM_COUNT>
33

> <PUBCHEM_ATOM_DEF_STEREO_COUNT>
0

> <PUBCHEM_ATOM_UDEF_STEREO_COUNT>
4

> <PUBCHEM_BOND_DEF_STEREO_COUNT>
0

> <PUBCHEM_BOND_UDEF_STEREO_COUNT>
0

> <PUBCHEM_ISOTOPIC_ATOM_COUNT>
0

> <PUBCHEM_COMPONENT_COUNT>
1

> <PUBCHEM_CACTVS_TAUTO_COUNT>
-1

> <PUBCHEM_COORDINATE_TYPE>
1
5
255

> <PUBCHEM_BONDANNOTATIONS>
10  14  3
11  14  3
13  17  3
18  19  8
19  21  8
26  27  8
26  30  8
27  31  8
28  31  8
28  32  8
12  3  3
30  32  8
5  18  8
5  20  8
8  20  8
8  21  8

$$$$
