11751922
  -OEChem-03202504312D

 63 69  0     0  0  0  0  0  0999 V2000
    8.3508    3.1350    0.0000 O   0  0  0  0  0  0  0  0  0  0  0  0
    4.6249    0.2127    0.0000 N   0  0  0  0  0  0  0  0  0  0  0  0
    8.6238    1.3798    0.0000 N   0  0  0  0  0  0  0  0  0  0  0  0
    6.6023    5.0590    0.0000 N   0  0  0  0  0  0  0  0  0  0  0  0
    5.5716    4.9596    0.0000 N   0  0  0  0  0  0  0  0  0  0  0  0
    6.8150   -3.1769    0.0000 N   0  0  0  0  0  0  0  0  0  0  0  0
    5.4168   -4.1991    0.0000 N   0  0  0  0  0  0  0  0  0  0  0  0
    7.0012   -4.8989    0.0000 N   0  0  0  0  0  0  0  0  0  0  0  0
    5.3619    0.8798    0.0000 C   0  0  0  0  0  0  0  0  0  0  0  0
    5.3619    1.8798    0.0000 C   0  0  0  0  0  0  0  0  0  0  0  0
    6.2279    0.3798    0.0000 C   0  0  0  0  0  0  0  0  0  0  0  0
    6.2279    2.3798    0.0000 C   0  0  0  0  0  0  0  0  0  0  0  0
    7.0939    0.8798    0.0000 C   0  0  0  0  0  0  0  0  0  0  0  0
    7.0939    1.8798    0.0000 C   0  0  0  0  0  0  0  0  0  0  0  0
    4.4519    2.3866    0.0000 C   0  0  0  0  0  0  0  0  0  0  0  0
    6.0187   -0.5920    0.0000 C   0  0  0  0  0  0  0  0  0  0  0  0
    5.0300   -0.6951    0.0000 C   0  0  0  0  0  0  0  0  0  0  0  0
    6.2440    3.4213    0.0000 C   0  0  0  0  0  0  0  0  0  0  0  0
    3.6464    0.4189    0.0000 C   0  0  0  0  0  0  0  0  0  0  0  0
    4.4438    3.4282    0.0000 C   0  0  0  0  0  0  0  0  0  0  0  0
    8.0401    0.5750    0.0000 C   0  0  0  0  0  0  0  0  0  0  0  0
    5.3459    3.9490    0.0000 C   0  0  0  0  0  0  0  0  0  0  0  0
    2.9785   -0.3254    0.0000 C   0  0  0  0  0  0  0  0  0  0  0  0
    8.0401    2.1845    0.0000 C   0  0  0  0  0  0  0  0  0  0  0  0
    6.6394   -1.4208    0.0000 C   0  0  0  0  0  0  0  0  0  0  0  0
    4.5935   -1.6341    0.0000 C   0  0  0  0  0  0  0  0  0  0  0  0
    7.0170    4.1102    0.0000 C   0  0  0  0  0  0  0  0  0  0  0  0
    6.2248   -2.3696    0.0000 C   0  0  0  0  0  0  0  0  0  0  0  0
    5.1949   -2.4770    0.0000 C   0  0  0  0  0  0  0  0  0  0  0  0
    2.0000   -0.1192    0.0000 C   0  0  0  0  0  0  0  0  0  0  0  0
    3.2892   -1.2759    0.0000 C   0  0  0  0  0  0  0  0  0  0  0  0
    7.1090    5.9211    0.0000 C   0  0  0  0  0  0  0  0  0  0  0  0
    6.4110   -4.0916    0.0000 C   0  0  0  0  0  0  0  0  0  0  0  0
    5.0128   -5.1139    0.0000 C   0  0  0  0  0  0  0  0  0  0  0  0
    6.5972   -5.8136    0.0000 C   0  0  0  0  0  0  0  0  0  0  0  0
    5.6030   -5.9211    0.0000 C   0  0  0  0  0  0  0  0  0  0  0  0
    3.8402    2.4880    0.0000 H   0  0  0  0  0  0  0  0  0  0  0  0
    4.2473    1.8013    0.0000 H   0  0  0  0  0  0  0  0  0  0  0  0
    3.8776    0.9942    0.0000 H   0  0  0  0  0  0  0  0  0  0  0  0
    3.1200    0.7465    0.0000 H   0  0  0  0  0  0  0  0  0  0  0  0
    4.2303    4.0103    0.0000 H   0  0  0  0  0  0  0  0  0  0  0  0
    3.8338    3.3174    0.0000 H   0  0  0  0  0  0  0  0  0  0  0  0
    7.7891    0.0081    0.0000 H   0  0  0  0  0  0  0  0  0  0  0  0
    8.5775    0.2658    0.0000 H   0  0  0  0  0  0  0  0  0  0  0  0
    3.5852   -0.4533    0.0000 H   0  0  0  0  0  0  0  0  0  0  0  0
    9.2438    1.3798    0.0000 H   0  0  0  0  0  0  0  0  0  0  0  0
    7.2553   -1.3494    0.0000 H   0  0  0  0  0  0  0  0  0  0  0  0
    3.9761   -1.6912    0.0000 H   0  0  0  0  0  0  0  0  0  0  0  0
    7.6227    3.9777    0.0000 H   0  0  0  0  0  0  0  0  0  0  0  0
    4.9400   -3.0422    0.0000 H   0  0  0  0  0  0  0  0  0  0  0  0
    2.1279    0.4875    0.0000 H   0  0  0  0  0  0  0  0  0  0  0  0
    1.3933    0.0087    0.0000 H   0  0  0  0  0  0  0  0  0  0  0  0
    1.8721   -0.7259    0.0000 H   0  0  0  0  0  0  0  0  0  0  0  0
    2.6998   -1.4685    0.0000 H   0  0  0  0  0  0  0  0  0  0  0  0
    3.4818   -1.8652    0.0000 H   0  0  0  0  0  0  0  0  0  0  0  0
    3.8785   -1.0833    0.0000 H   0  0  0  0  0  0  0  0  0  0  0  0
    7.6435    5.6070    0.0000 H   0  0  0  0  0  0  0  0  0  0  0  0
    7.4231    6.4557    0.0000 H   0  0  0  0  0  0  0  0  0  0  0  0
    6.5744    6.2353    0.0000 H   0  0  0  0  0  0  0  0  0  0  0  0
    7.4314   -3.1102    0.0000 H   0  0  0  0  0  0  0  0  0  0  0  0
    4.3964   -5.1805    0.0000 H   0  0  0  0  0  0  0  0  0  0  0  0
    6.9631   -6.3141    0.0000 H   0  0  0  0  0  0  0  0  0  0  0  0
    5.3525   -6.4883    0.0000 H   0  0  0  0  0  0  0  0  0  0  0  0
  1 24  2  0  0  0  0
  2  9  1  0  0  0  0
  2 17  1  0  0  0  0
  2 19  1  0  0  0  0
  3 21  1  0  0  0  0
  3 24  1  0  0  0  0
  3 46  1  0  0  0  0
  4  5  1  0  0  0  0
  4 27  1  0  0  0  0
  4 32  1  0  0  0  0
  5 22  2  0  0  0  0
  6 28  1  0  0  0  0
  6 33  1  0  0  0  0
  6 60  1  0  0  0  0
  7 33  2  0  0  0  0
  7 34  1  0  0  0  0
  8 33  1  0  0  0  0
  8 35  2  0  0  0  0
  9 10  1  0  0  0  0
  9 11  2  0  0  0  0
 10 12  2  0  0  0  0
 10 15  1  0  0  0  0
 11 13  1  0  0  0  0
 11 16  1  0  0  0  0
 12 14  1  0  0  0  0
 12 18  1  0  0  0  0
 13 14  2  0  0  0  0
 13 21  1  0  0  0  0
 14 24  1  0  0  0  0
 15 20  1  0  0  0  0
 15 37  1  0  0  0  0
 15 38  1  0  0  0  0
 16 17  2  0  0  0  0
 16 25  1  0  0  0  0
 17 26  1  0  0  0  0
 18 22  1  0  0  0  0
 18 27  2  0  0  0  0
 19 23  1  0  0  0  0
 19 39  1  0  0  0  0
 19 40  1  0  0  0  0
 20 22  1  0  0  0  0
 20 41  1  0  0  0  0
 20 42  1  0  0  0  0
 21 43  1  0  0  0  0
 21 44  1  0  0  0  0
 23 30  1  0  0  0  0
 23 31  1  0  0  0  0
 23 45  1  0  0  0  0
 25 28  2  0  0  0  0
 25 47  1  0  0  0  0
 26 29  2  0  0  0  0
 26 48  1  0  0  0  0
 27 49  1  0  0  0  0
 28 29  1  0  0  0  0
 29 50  1  0  0  0  0
 30 51  1  0  0  0  0
 30 52  1  0  0  0  0
 30 53  1  0  0  0  0
 31 54  1  0  0  0  0
 31 55  1  0  0  0  0
 31 56  1  0  0  0  0
 32 57  1  0  0  0  0
 32 58  1  0  0  0  0
 32 59  1  0  0  0  0
 34 36  2  0  0  0  0
 34 61  1  0  0  0  0
 35 36  1  0  0  0  0
 35 62  1  0  0  0  0
 36 63  1  0  0  0  0
M  END
> <PUBCHEM_COMPOUND_CID>
11751922

> <PUBCHEM_COMPOUND_CANONICALIZED>
1

> <PUBCHEM_CACTVS_COMPLEXITY>
833

> <PUBCHEM_CACTVS_HBOND_ACCEPTOR>
5

> <PUBCHEM_CACTVS_HBOND_DONOR>
2

> <PUBCHEM_CACTVS_ROTATABLE_BOND>
4

> <PUBCHEM_CACTVS_SUBSKEYS>
AAADceB7oAAAAAAAAAAAAAAAAAAAAWLFgAA8YMEAAAAAAFjB/gAAHgAYAAAADQjBngQ/0PfMEACqAzV3dACShCk1gqAZ2KE4ZNiIKPLA3dGEpQhongLIySccicCeyACCQAASAACQAQSAACQAAAAAAAAAAA==

> <PUBCHEM_IUPAC_OPENEYE_NAME>
3-isobutyl-19-methyl-7-(pyrimidin-2-ylamino)-3,13,19,20-tetrazahexacyclo[14.7.0.02,10.04,9.011,15.017,21]tricosa-1(16),2(10),4(9),5,7,11(15),17,20-octaen-14-one

> <PUBCHEM_IUPAC_CAS_NAME>
19-methyl-3-(2-methylpropyl)-7-(2-pyrimidinylamino)-3,13,19,20-tetrazahexacyclo[14.7.0.02,10.04,9.011,15.017,21]tricosa-1(16),2(10),4(9),5,7,11(15),17,20-octaen-14-one

> <PUBCHEM_IUPAC_NAME_MARKUP>
19-methyl-3-(2-methylpropyl)-7-(pyrimidin-2-ylamino)-3,13,19,20-tetrazahexacyclo[14.7.0.0<SUP>2,10</SUP>.0<SUP>4,9</SUP>.0<SUP>11,15</SUP>.0<SUP>17,21</SUP>]tricosa-1(16),2(10),4(9),5,7,11(15),17,20-octaen-14-one

> <PUBCHEM_IUPAC_NAME>
19-methyl-3-(2-methylpropyl)-7-(pyrimidin-2-ylamino)-3,13,19,20-tetrazahexacyclo[14.7.0.02,10.04,9.011,15.017,21]tricosa-1(16),2(10),4(9),5,7,11(15),17,20-octaen-14-one

> <PUBCHEM_IUPAC_SYSTEMATIC_NAME>
19-methyl-3-(2-methylpropyl)-7-(pyrimidin-2-ylamino)-3,13,19,20-tetrazahexacyclo[14.7.0.02,10.04,9.011,15.017,21]tricosa-1(16),2(10),4(9),5,7,11(15),17,20-octaen-14-one

> <PUBCHEM_IUPAC_TRADITIONAL_NAME>
3-isobutyl-19-methyl-7-(2-pyrimidylamino)-3,13,19,20-tetrazahexacyclo[14.7.0.02,10.04,9.011,15.017,21]tricosa-1(16),2(10),4(9),5,7,11(15),17,20-octaen-14-one

> <PUBCHEM_IUPAC_INCHI>
InChI=1S/C28H27N7O/c1-15(2)13-35-22-8-5-16(32-28-29-9-4-10-30-28)11-18(22)24-19-12-31-27(36)25(19)23-17(26(24)35)6-7-21-20(23)14-34(3)33-21/h4-5,8-11,14-15H,6-7,12-13H2,1-3H3,(H,31,36)(H,29,30,32)

> <PUBCHEM_IUPAC_INCHIKEY>
AEULIVPVIDOLIN-UHFFFAOYSA-N

> <PUBCHEM_XLOGP3_AA>
3.9

> <PUBCHEM_EXACT_MASS>
477.22770851

> <PUBCHEM_MOLECULAR_FORMULA>
C28H27N7O

> <PUBCHEM_MOLECULAR_WEIGHT>
477.6

> <PUBCHEM_SMILES>
CC(C)CN1C2=C(C=C(C=C2)NC3=NC=CC=N3)C4=C1C5=C(C6=CN(N=C6CC5)C)C7=C4CNC7=O

> <PUBCHEM_OPENEYE_CAN_SMILES>
CC(C)CN1C2=C(C=C(C=C2)NC3=NC=CC=N3)C4=C1C5=C(C6=CN(N=C6CC5)C)C7=C4CNC7=O

> <PUBCHEM_OPENEYE_ISO_SMILES>
CC(C)CN1C2=C(C=C(C=C2)NC3=NC=CC=N3)C4=C1C5=C(C6=CN(N=C6CC5)C)C7=C4CNC7=O

> <PUBCHEM_CACTVS_TPSA>
89.7

> <PUBCHEM_MONOISOTOPIC_WEIGHT>
477.22770851

> <PUBCHEM_TOTAL_CHARGE>
0

> <PUBCHEM_HEAVY_ATOM_COUNT>
36

> <PUBCHEM_ATOM_DEF_STEREO_COUNT>
0

> <PUBCHEM_ATOM_UDEF_STEREO_COUNT>
0

> <PUBCHEM_BOND_DEF_STEREO_COUNT>
0

> <PUBCHEM_BOND_UDEF_STEREO_COUNT>
0

> <PUBCHEM_ISOTOPIC_ATOM_COUNT>
0

> <PUBCHEM_COMPONENT_COUNT>
1

> <PUBCHEM_CACTVS_TAUTO_COUNT>
-1

> <PUBCHEM_COORDINATE_TYPE>
1
5
255

> <PUBCHEM_BONDANNOTATIONS>
10  12  8
11  13  8
11  16  8
12  14  8
13  14  8
16  17  8
16  25  8
17  26  8
18  22  8
18  27  8
2  17  8
2  9  8
25  28  8
26  29  8
28  29  8
34  36  8
35  36  8
4  27  8
4  5  8
5  22  8
7  33  8
7  34  8
8  33  8
8  35  8
9  10  8
9  11  8

$$$$
