22402079
  -OEChem-03202501552D

 22 23  0     0  0  0  0  0  0999 V2000
    6.2619   -1.3660    0.0000 O   0  0  0  0  0  0  0  0  0  0  0  0
    3.7320   -0.1340    0.0000 N   0  0  0  0  0  0  0  0  0  0  0  0
    4.6783   -0.4387    0.0000 N   0  0  0  0  0  0  0  0  0  0  0  0
    6.2619    0.3660    0.0000 N   0  0  0  0  0  0  0  0  0  0  0  0
    3.7320    0.8660    0.0000 C   0  0  0  0  0  0  0  0  0  0  0  0
    5.2619    0.3660    0.0000 C   0  0  0  0  0  0  0  0  0  0  0  0
    4.6783    1.1708    0.0000 C   0  0  0  0  0  0  0  0  0  0  0  0
    2.8660    1.3660    0.0000 C   0  0  0  0  0  0  0  0  0  0  0  0
    2.8660   -0.6340    0.0000 C   0  0  0  0  0  0  0  0  0  0  0  0
    2.0000    0.8660    0.0000 C   0  0  0  0  0  0  0  0  0  0  0  0
    2.0000   -0.1340    0.0000 C   0  0  0  0  0  0  0  0  0  0  0  0
    6.7619   -0.5000    0.0000 C   0  0  0  0  0  0  0  0  0  0  0  0
    7.7619   -0.5000    0.0000 C   0  0  0  0  0  0  0  0  0  0  0  0
    4.8709    1.7601    0.0000 H   0  0  0  0  0  0  0  0  0  0  0  0
    2.8660    1.9860    0.0000 H   0  0  0  0  0  0  0  0  0  0  0  0
    2.8660   -1.2540    0.0000 H   0  0  0  0  0  0  0  0  0  0  0  0
    6.5719    0.9030    0.0000 H   0  0  0  0  0  0  0  0  0  0  0  0
    1.4631    1.1760    0.0000 H   0  0  0  0  0  0  0  0  0  0  0  0
    1.4631   -0.4440    0.0000 H   0  0  0  0  0  0  0  0  0  0  0  0
    7.7619   -1.1200    0.0000 H   0  0  0  0  0  0  0  0  0  0  0  0
    8.3819   -0.5000    0.0000 H   0  0  0  0  0  0  0  0  0  0  0  0
    7.7619    0.1200    0.0000 H   0  0  0  0  0  0  0  0  0  0  0  0
  1 12  2  0  0  0  0
  2  3  1  0  0  0  0
  2  5  1  0  0  0  0
  2  9  1  0  0  0  0
  3  6  2  0  0  0  0
  4  6  1  0  0  0  0
  4 12  1  0  0  0  0
  4 17  1  0  0  0  0
  5  7  2  0  0  0  0
  5  8  1  0  0  0  0
  6  7  1  0  0  0  0
  7 14  1  0  0  0  0
  8 10  2  0  0  0  0
  8 15  1  0  0  0  0
  9 11  2  0  0  0  0
  9 16  1  0  0  0  0
 10 11  1  0  0  0  0
 10 18  1  0  0  0  0
 11 19  1  0  0  0  0
 12 13  1  0  0  0  0
 13 20  1  0  0  0  0
 13 21  1  0  0  0  0
 13 22  1  0  0  0  0
M  END
> <PUBCHEM_COMPOUND_CID>
22402079

> <PUBCHEM_COMPOUND_CANONICALIZED>
1

> <PUBCHEM_CACTVS_COMPLEXITY>
207

> <PUBCHEM_CACTVS_HBOND_ACCEPTOR>
2

> <PUBCHEM_CACTVS_HBOND_DONOR>
1

> <PUBCHEM_CACTVS_ROTATABLE_BOND>
1

> <PUBCHEM_CACTVS_SUBSKEYS>
AAADccBzIAAAAAAAAAAAAAAAAAAAAWAAAAAsAAAAAAAAAFgB4AAAHgAYAAAACAjBlgQ/8LLIEACqATd3dACShCIxgiAd2CA4ZJiIIOLA2dGEpAhwnQLIyAcQgAAAAAAAAAAAAAAAAAAAAAAAAAAAAAAAAA==

> <PUBCHEM_IUPAC_OPENEYE_NAME>
N-pyrazolo[1,5-a]pyridin-2-ylacetamide

> <PUBCHEM_IUPAC_CAS_NAME>
N-(2-pyrazolo[1,5-a]pyridinyl)acetamide

> <PUBCHEM_IUPAC_NAME_MARKUP>
<I>N</I>-pyrazolo[1,5-a]pyridin-2-ylacetamide

> <PUBCHEM_IUPAC_NAME>
N-pyrazolo[1,5-a]pyridin-2-ylacetamide

> <PUBCHEM_IUPAC_SYSTEMATIC_NAME>
N-pyrazolo[1,5-a]pyridin-2-ylethanamide

> <PUBCHEM_IUPAC_TRADITIONAL_NAME>
N-pyrazolo[1,5-a]pyridin-2-ylacetamide

> <PUBCHEM_IUPAC_INCHI>
InChI=1S/C9H9N3O/c1-7(13)10-9-6-8-4-2-3-5-12(8)11-9/h2-6H,1H3,(H,10,11,13)

> <PUBCHEM_IUPAC_INCHIKEY>
SVDMUWJUTICXSY-UHFFFAOYSA-N

> <PUBCHEM_XLOGP3_AA>
0.6

> <PUBCHEM_EXACT_MASS>
175.074561919

> <PUBCHEM_MOLECULAR_FORMULA>
C9H9N3O

> <PUBCHEM_MOLECULAR_WEIGHT>
175.19

> <PUBCHEM_SMILES>
CC(=O)NC1=NN2C=CC=CC2=C1

> <PUBCHEM_OPENEYE_CAN_SMILES>
CC(=O)NC1=NN2C=CC=CC2=C1

> <PUBCHEM_OPENEYE_ISO_SMILES>
CC(=O)NC1=NN2C=CC=CC2=C1

> <PUBCHEM_CACTVS_TPSA>
46.4

> <PUBCHEM_MONOISOTOPIC_WEIGHT>
175.074561919

> <PUBCHEM_TOTAL_CHARGE>
0

> <PUBCHEM_HEAVY_ATOM_COUNT>
13

> <PUBCHEM_ATOM_DEF_STEREO_COUNT>
0

> <PUBCHEM_ATOM_UDEF_STEREO_COUNT>
0

> <PUBCHEM_BOND_DEF_STEREO_COUNT>
0

> <PUBCHEM_BOND_UDEF_STEREO_COUNT>
0

> <PUBCHEM_ISOTOPIC_ATOM_COUNT>
0

> <PUBCHEM_COMPONENT_COUNT>
1

> <PUBCHEM_CACTVS_TAUTO_COUNT>
-1

> <PUBCHEM_COORDINATE_TYPE>
1
5
255

> <PUBCHEM_BONDANNOTATIONS>
10  11  8
2  3  8
2  5  8
2  9  8
3  6  8
5  7  8
5  8  8
6  7  8
8  10  8
9  11  8

$$$$
