25167971
  -OEChem-03202503422D

 47 51  0     0  0  0  0  0  0999 V2000
    3.9694   -2.1153    0.0000 F   0  0  0  0  0  0  0  0  0  0  0  0
    7.3578   -2.8355    0.0000 F   0  0  0  0  0  0  0  0  0  0  0  0
    8.6554   -0.8703    0.0000 O   0  0  0  0  0  0  0  0  0  0  0  0
    3.5762    1.2423    0.0000 N   0  0  0  0  0  0  0  0  0  0  0  0
    3.4071   -0.3669    0.0000 N   0  0  0  0  0  0  0  0  0  0  0  0
    7.0878    1.3355    0.0000 N   0  0  0  0  0  0  0  0  0  0  0  0
    6.2218    0.8355    0.0000 N   0  0  0  0  0  0  0  0  0  0  0  0
    8.6177    1.8355    0.0000 N   0  0  0  0  0  0  0  0  0  0  0  0
    8.0341    2.6402    0.0000 N   0  0  0  0  0  0  0  0  0  0  0  0
    3.0769    2.1019    0.0000 C   0  0  0  0  0  0  0  0  0  0  0  0
    2.1048    1.8943    0.0000 C   0  0  0  0  0  0  0  0  0  0  0  0
    2.0000    0.9058    0.0000 C   0  0  0  0  0  0  0  0  0  0  0  0
    2.9071    0.4991    0.0000 C   0  0  0  0  0  0  0  0  0  0  0  0
    4.4898    0.8355    0.0000 C   0  0  0  0  0  0  0  0  0  0  0  0
    4.3852   -0.1590    0.0000 C   0  0  0  0  0  0  0  0  0  0  0  0
    5.3558    1.3355    0.0000 C   0  0  0  0  0  0  0  0  0  0  0  0
    5.1284   -0.8281    0.0000 C   0  0  0  0  0  0  0  0  0  0  0  0
    8.3447    0.0803    0.0000 C   0  0  0  0  0  0  0  0  0  0  0  0
    8.0341    1.0308    0.0000 C   0  0  0  0  0  0  0  0  0  0  0  0
    5.3558    2.3355    0.0000 C   0  0  0  0  0  0  0  0  0  0  0  0
    7.0878    2.3355    0.0000 C   0  0  0  0  0  0  0  0  0  0  0  0
    6.2218    2.8355    0.0000 C   0  0  0  0  0  0  0  0  0  0  0  0
    9.2952    0.3909    0.0000 C   0  0  0  0  0  0  0  0  0  0  0  0
    7.3942   -0.2304    0.0000 C   0  0  0  0  0  0  0  0  0  0  0  0
    4.9205   -1.8063    0.0000 C   0  0  0  0  0  0  0  0  0  0  0  0
    6.0794   -0.5191    0.0000 C   0  0  0  0  0  0  0  0  0  0  0  0
    5.6636   -2.4754    0.0000 C   0  0  0  0  0  0  0  0  0  0  0  0
    6.8226   -1.1882    0.0000 C   0  0  0  0  0  0  0  0  0  0  0  0
    6.6147   -2.1664    0.0000 C   0  0  0  0  0  0  0  0  0  0  0  0
    3.6428    2.3552    0.0000 H   0  0  0  0  0  0  0  0  0  0  0  0
    2.8845    2.6912    0.0000 H   0  0  0  0  0  0  0  0  0  0  0  0
    2.0398    2.5109    0.0000 H   0  0  0  0  0  0  0  0  0  0  0  0
    1.4848    1.8945    0.0000 H   0  0  0  0  0  0  0  0  0  0  0  0
    1.3937    1.0356    0.0000 H   0  0  0  0  0  0  0  0  0  0  0  0
    1.8072    0.3165    0.0000 H   0  0  0  0  0  0  0  0  0  0  0  0
    4.8188    2.6455    0.0000 H   0  0  0  0  0  0  0  0  0  0  0  0
    6.2218    3.4555    0.0000 H   0  0  0  0  0  0  0  0  0  0  0  0
    9.4878   -0.1984    0.0000 H   0  0  0  0  0  0  0  0  0  0  0  0
    9.8846    0.5835    0.0000 H   0  0  0  0  0  0  0  0  0  0  0  0
    9.1026    0.9803    0.0000 H   0  0  0  0  0  0  0  0  0  0  0  0
    7.2016    0.3589    0.0000 H   0  0  0  0  0  0  0  0  0  0  0  0
    6.8049   -0.4230    0.0000 H   0  0  0  0  0  0  0  0  0  0  0  0
    7.5868   -0.8197    0.0000 H   0  0  0  0  0  0  0  0  0  0  0  0
    6.2083    0.0873    0.0000 H   0  0  0  0  0  0  0  0  0  0  0  0
    9.2620   -0.9981    0.0000 H   0  0  0  0  0  0  0  0  0  0  0  0
    5.5347   -3.0819    0.0000 H   0  0  0  0  0  0  0  0  0  0  0  0
    7.4122   -0.9967    0.0000 H   0  0  0  0  0  0  0  0  0  0  0  0
  1 25  1  0  0  0  0
  2 29  1  0  0  0  0
  3 18  1  0  0  0  0
  3 45  1  0  0  0  0
  4 10  1  0  0  0  0
  4 13  1  0  0  0  0
  4 14  1  0  0  0  0
  5 13  2  0  0  0  0
  5 15  1  0  0  0  0
  6  7  1  0  0  0  0
  6 19  1  0  0  0  0
  6 21  1  0  0  0  0
  7 16  2  0  0  0  0
  8  9  1  0  0  0  0
  8 19  2  0  0  0  0
  9 21  2  0  0  0  0
 10 11  1  0  0  0  0
 10 30  1  0  0  0  0
 10 31  1  0  0  0  0
 11 12  1  0  0  0  0
 11 32  1  0  0  0  0
 11 33  1  0  0  0  0
 12 13  1  0  0  0  0
 12 34  1  0  0  0  0
 12 35  1  0  0  0  0
 14 15  2  0  0  0  0
 14 16  1  0  0  0  0
 15 17  1  0  0  0  0
 16 20  1  0  0  0  0
 17 25  2  0  0  0  0
 17 26  1  0  0  0  0
 18 19  1  0  0  0  0
 18 23  1  0  0  0  0
 18 24  1  0  0  0  0
 20 22  2  0  0  0  0
 20 36  1  0  0  0  0
 21 22  1  0  0  0  0
 22 37  1  0  0  0  0
 23 38  1  0  0  0  0
 23 39  1  0  0  0  0
 23 40  1  0  0  0  0
 24 41  1  0  0  0  0
 24 42  1  0  0  0  0
 24 43  1  0  0  0  0
 25 27  1  0  0  0  0
 26 28  2  0  0  0  0
 26 44  1  0  0  0  0
 27 29  2  0  0  0  0
 27 46  1  0  0  0  0
 28 29  1  0  0  0  0
 28 47  1  0  0  0  0
M  END
> <PUBCHEM_COMPOUND_CID>
25167971

> <PUBCHEM_COMPOUND_CANONICALIZED>
1

> <PUBCHEM_CACTVS_COMPLEXITY>
612

> <PUBCHEM_CACTVS_HBOND_ACCEPTOR>
7

> <PUBCHEM_CACTVS_HBOND_DONOR>
1

> <PUBCHEM_CACTVS_ROTATABLE_BOND>
3

> <PUBCHEM_CACTVS_SUBSKEYS>
AAADceB7oYAAAAAAAAAAAAAAAAAAAWLFgAA8QAAAAAAWAFgB/AAAHwAICAAADEzBnwwzsJ8MEgCiAyZiZASShC8hEqAd2CA4dJiKaKLA2ZGUoAhoiALYyCcQgMAOAAAAAAAAAAAAAAAAAAAAAAAAAAAAAA==

> <PUBCHEM_IUPAC_OPENEYE_NAME>
2-[6-[2-(2,4-difluorophenyl)-6,7-dihydro-5H-pyrrolo[1,2-a]imidazol-3-yl]-[1,2,4]triazolo[4,3-b]pyridazin-3-yl]propan-2-ol

> <PUBCHEM_IUPAC_CAS_NAME>
2-[6-[2-(2,4-difluorophenyl)-6,7-dihydro-5H-pyrrolo[1,2-a]imidazol-3-yl]-[1,2,4]triazolo[4,3-b]pyridazin-3-yl]-2-propanol

> <PUBCHEM_IUPAC_NAME_MARKUP>
2-[6-[2-(2,4-difluorophenyl)-6,7-dihydro-5<I>H</I>-pyrrolo[1,2-a]imidazol-3-yl]-[1,2,4]triazolo[4,3-b]pyridazin-3-yl]propan-2-ol

> <PUBCHEM_IUPAC_NAME>
2-[6-[2-(2,4-difluorophenyl)-6,7-dihydro-5H-pyrrolo[1,2-a]imidazol-3-yl]-[1,2,4]triazolo[4,3-b]pyridazin-3-yl]propan-2-ol

> <PUBCHEM_IUPAC_SYSTEMATIC_NAME>
2-[6-[2-[2,4-bis(fluoranyl)phenyl]-6,7-dihydro-5H-pyrrolo[1,2-a]imidazol-3-yl]-[1,2,4]triazolo[4,3-b]pyridazin-3-yl]propan-2-ol

> <PUBCHEM_IUPAC_TRADITIONAL_NAME>
2-[6-[2-(2,4-difluorophenyl)-6,7-dihydro-5H-pyrrol[1,2-a]imidazol-3-yl]-[1,2,4]triazolo[4,3-b]pyridazin-3-yl]propan-2-ol

> <PUBCHEM_IUPAC_INCHI>
InChI=1S/C20H18F2N6O/c1-20(2,29)19-25-24-16-8-7-14(26-28(16)19)18-17(23-15-4-3-9-27(15)18)12-6-5-11(21)10-13(12)22/h5-8,10,29H,3-4,9H2,1-2H3

> <PUBCHEM_IUPAC_INCHIKEY>
UEJXQVWENDKSJQ-UHFFFAOYSA-N

> <PUBCHEM_XLOGP3_AA>
1.5

> <PUBCHEM_EXACT_MASS>
396.15101554

> <PUBCHEM_MOLECULAR_FORMULA>
C20H18F2N6O

> <PUBCHEM_MOLECULAR_WEIGHT>
396.4

> <PUBCHEM_SMILES>
CC(C)(C1=NN=C2N1N=C(C=C2)C3=C(N=C4N3CCC4)C5=C(C=C(C=C5)F)F)O

> <PUBCHEM_OPENEYE_CAN_SMILES>
CC(C)(C1=NN=C2N1N=C(C=C2)C3=C(N=C4N3CCC4)C5=C(C=C(C=C5)F)F)O

> <PUBCHEM_OPENEYE_ISO_SMILES>
CC(C)(C1=NN=C2N1N=C(C=C2)C3=C(N=C4N3CCC4)C5=C(C=C(C=C5)F)F)O

> <PUBCHEM_CACTVS_TPSA>
81.1

> <PUBCHEM_MONOISOTOPIC_WEIGHT>
396.15101554

> <PUBCHEM_TOTAL_CHARGE>
0

> <PUBCHEM_HEAVY_ATOM_COUNT>
29

> <PUBCHEM_ATOM_DEF_STEREO_COUNT>
0

> <PUBCHEM_ATOM_UDEF_STEREO_COUNT>
0

> <PUBCHEM_BOND_DEF_STEREO_COUNT>
0

> <PUBCHEM_BOND_UDEF_STEREO_COUNT>
0

> <PUBCHEM_ISOTOPIC_ATOM_COUNT>
0

> <PUBCHEM_COMPONENT_COUNT>
1

> <PUBCHEM_CACTVS_TAUTO_COUNT>
-1

> <PUBCHEM_COORDINATE_TYPE>
1
5
255

> <PUBCHEM_BONDANNOTATIONS>
14  15  8
16  20  8
17  25  8
17  26  8
20  22  8
21  22  8
25  27  8
26  28  8
27  29  8
28  29  8
4  13  8
4  14  8
5  13  8
5  15  8
6  19  8
6  21  8
6  7  8
7  16  8
8  19  8
8  9  8
9  21  8

$$$$
