49830426
  -OEChem-03202500502D

 43 45  0     0  0  0  0  0  0999 V2000
   10.6603   -1.8770    0.0000 F   0  0  0  0  0  0  0  0  0  0  0  0
    6.3301   -4.3770    0.0000 F   0  0  0  0  0  0  0  0  0  0  0  0
    7.6962   -4.7430    0.0000 F   0  0  0  0  0  0  0  0  0  0  0  0
    6.6962   -3.0110    0.0000 F   0  0  0  0  0  0  0  0  0  0  0  0
    7.1962   -0.8770    0.0000 O   0  0  0  0  0  0  0  0  0  0  0  0
    2.0000    4.1230    0.0000 O   0  0  0  0  0  0  0  0  0  0  0  0
    8.0622    0.6230    0.0000 N   0  0  0  0  0  0  0  0  0  0  0  0
    8.9282   -0.8770    0.0000 N   0  0  0  0  0  0  0  0  0  0  0  0
    4.5981    3.6230    0.0000 N   0  0  0  0  0  0  0  0  0  0  0  0
    3.7320    4.1230    0.0000 N   0  0  0  0  0  0  0  0  0  0  0  0
    5.4641    2.1230    0.0000 C   0  0  0  0  0  0  0  0  0  0  0  0
    4.5981    2.6230    0.0000 C   0  0  0  0  0  0  0  0  0  0  0  0
    7.1962    1.1230    0.0000 C   0  0  0  0  0  0  0  0  0  0  0  0
    3.7320    2.1230    0.0000 C   0  0  0  0  0  0  0  0  0  0  0  0
    5.4641    1.1230    0.0000 C   0  0  0  0  0  0  0  0  0  0  0  0
    6.3301    2.6230    0.0000 C   0  0  0  0  0  0  0  0  0  0  0  0
    6.3301    0.6230    0.0000 C   0  0  0  0  0  0  0  0  0  0  0  0
    7.1962    2.1230    0.0000 C   0  0  0  0  0  0  0  0  0  0  0  0
    8.9282   -1.8770    0.0000 C   0  0  0  0  0  0  0  0  0  0  0  0
    8.0622   -3.3770    0.0000 C   0  0  0  0  0  0  0  0  0  0  0  0
    8.0622   -2.3770    0.0000 C   0  0  0  0  0  0  0  0  0  0  0  0
    2.8660    2.6230    0.0000 C   0  0  0  0  0  0  0  0  0  0  0  0
    9.7942   -2.3770    0.0000 C   0  0  0  0  0  0  0  0  0  0  0  0
    3.7320    1.1230    0.0000 C   0  0  0  0  0  0  0  0  0  0  0  0
    8.0622   -0.3770    0.0000 C   0  0  0  0  0  0  0  0  0  0  0  0
    8.9282   -3.8770    0.0000 C   0  0  0  0  0  0  0  0  0  0  0  0
    9.7942   -3.3770    0.0000 C   0  0  0  0  0  0  0  0  0  0  0  0
    7.1962   -3.8770    0.0000 C   0  0  0  0  0  0  0  0  0  0  0  0
    2.8660    3.6230    0.0000 C   0  0  0  0  0  0  0  0  0  0  0  0
    4.9272    0.8130    0.0000 H   0  0  0  0  0  0  0  0  0  0  0  0
    6.3301    3.2430    0.0000 H   0  0  0  0  0  0  0  0  0  0  0  0
    6.3301    0.0030    0.0000 H   0  0  0  0  0  0  0  0  0  0  0  0
    7.7331    2.4330    0.0000 H   0  0  0  0  0  0  0  0  0  0  0  0
    7.5252   -2.0670    0.0000 H   0  0  0  0  0  0  0  0  0  0  0  0
    8.5991    0.9330    0.0000 H   0  0  0  0  0  0  0  0  0  0  0  0
    9.4651   -0.5670    0.0000 H   0  0  0  0  0  0  0  0  0  0  0  0
    2.3291    2.3130    0.0000 H   0  0  0  0  0  0  0  0  0  0  0  0
    3.1120    1.1230    0.0000 H   0  0  0  0  0  0  0  0  0  0  0  0
    3.7320    0.5030    0.0000 H   0  0  0  0  0  0  0  0  0  0  0  0
    4.3520    1.1230    0.0000 H   0  0  0  0  0  0  0  0  0  0  0  0
    8.9282   -4.4970    0.0000 H   0  0  0  0  0  0  0  0  0  0  0  0
   10.3312   -3.6870    0.0000 H   0  0  0  0  0  0  0  0  0  0  0  0
    3.7320    4.7430    0.0000 H   0  0  0  0  0  0  0  0  0  0  0  0
  1 23  1  0  0  0  0
  2 28  1  0  0  0  0
  3 28  1  0  0  0  0
  4 28  1  0  0  0  0
  5 25  2  0  0  0  0
  6 29  2  0  0  0  0
  7 13  1  0  0  0  0
  7 25  1  0  0  0  0
  7 35  1  0  0  0  0
  8 19  1  0  0  0  0
  8 25  1  0  0  0  0
  8 36  1  0  0  0  0
  9 10  1  0  0  0  0
  9 12  2  0  0  0  0
 10 29  1  0  0  0  0
 10 43  1  0  0  0  0
 11 12  1  0  0  0  0
 11 15  2  0  0  0  0
 11 16  1  0  0  0  0
 12 14  1  0  0  0  0
 13 17  2  0  0  0  0
 13 18  1  0  0  0  0
 14 22  2  0  0  0  0
 14 24  1  0  0  0  0
 15 17  1  0  0  0  0
 15 30  1  0  0  0  0
 16 18  2  0  0  0  0
 16 31  1  0  0  0  0
 17 32  1  0  0  0  0
 18 33  1  0  0  0  0
 19 21  1  0  0  0  0
 19 23  2  0  0  0  0
 20 21  2  0  0  0  0
 20 26  1  0  0  0  0
 20 28  1  0  0  0  0
 21 34  1  0  0  0  0
 22 29  1  0  0  0  0
 22 37  1  0  0  0  0
 23 27  1  0  0  0  0
 24 38  1  0  0  0  0
 24 39  1  0  0  0  0
 24 40  1  0  0  0  0
 26 27  2  0  0  0  0
 26 41  1  0  0  0  0
 27 42  1  0  0  0  0
M  END
> <PUBCHEM_COMPOUND_CID>
49830426

> <PUBCHEM_COMPOUND_CANONICALIZED>
1

> <PUBCHEM_CACTVS_COMPLEXITY>
699

> <PUBCHEM_CACTVS_HBOND_ACCEPTOR>
7

> <PUBCHEM_CACTVS_HBOND_DONOR>
3

> <PUBCHEM_CACTVS_ROTATABLE_BOND>
3

> <PUBCHEM_CACTVS_SUBSKEYS>
AAADccB7scAAAAAAAAAAAAAAAAAAAAAAAAAwYIAAAAAAAAABQAAAHwAYAAAADAiBmBgzwILiAACoAyVyUACSAAAhAgAaiAAgZNiIIKLAkZGEIAhonAJIyScQgIAOCAAAQAAAAAAQAACAAAAAAAAAAAAAAA==

> <PUBCHEM_IUPAC_OPENEYE_NAME>
1-[2-fluoro-5-(trifluoromethyl)phenyl]-3-[4-(4-methyl-6-oxo-1H-pyridazin-3-yl)phenyl]urea

> <PUBCHEM_IUPAC_CAS_NAME>
1-[2-fluoro-5-(trifluoromethyl)phenyl]-3-[4-(4-methyl-6-oxo-1H-pyridazin-3-yl)phenyl]urea

> <PUBCHEM_IUPAC_NAME_MARKUP>
1-[2-fluoro-5-(trifluoromethyl)phenyl]-3-[4-(4-methyl-6-oxo-1<I>H</I>-pyridazin-3-yl)phenyl]urea

> <PUBCHEM_IUPAC_NAME>
1-[2-fluoro-5-(trifluoromethyl)phenyl]-3-[4-(4-methyl-6-oxo-1H-pyridazin-3-yl)phenyl]urea

> <PUBCHEM_IUPAC_SYSTEMATIC_NAME>
1-[2-fluoranyl-5-(trifluoromethyl)phenyl]-3-[4-(4-methyl-6-oxidanylidene-1H-pyridazin-3-yl)phenyl]urea

> <PUBCHEM_IUPAC_TRADITIONAL_NAME>
1-[2-fluoro-5-(trifluoromethyl)phenyl]-3-[4-(6-keto-4-methyl-1H-pyridazin-3-yl)phenyl]urea

> <PUBCHEM_IUPAC_INCHI>
InChI=1S/C19H14F4N4O2/c1-10-8-16(28)26-27-17(10)11-2-5-13(6-3-11)24-18(29)25-15-9-12(19(21,22)23)4-7-14(15)20/h2-9H,1H3,(H,26,28)(H2,24,25,29)

> <PUBCHEM_IUPAC_INCHIKEY>
CJUJLGFTKBBDMG-UHFFFAOYSA-N

> <PUBCHEM_XLOGP3_AA>
3.2

> <PUBCHEM_EXACT_MASS>
406.10528835

> <PUBCHEM_MOLECULAR_FORMULA>
C19H14F4N4O2

> <PUBCHEM_MOLECULAR_WEIGHT>
406.3

> <PUBCHEM_SMILES>
CC1=CC(=O)NN=C1C2=CC=C(C=C2)NC(=O)NC3=C(C=CC(=C3)C(F)(F)F)F

> <PUBCHEM_OPENEYE_CAN_SMILES>
CC1=CC(=O)NN=C1C2=CC=C(C=C2)NC(=O)NC3=C(C=CC(=C3)C(F)(F)F)F

> <PUBCHEM_OPENEYE_ISO_SMILES>
CC1=CC(=O)NN=C1C2=CC=C(C=C2)NC(=O)NC3=C(C=CC(=C3)C(F)(F)F)F

> <PUBCHEM_CACTVS_TPSA>
82.6

> <PUBCHEM_MONOISOTOPIC_WEIGHT>
406.10528835

> <PUBCHEM_TOTAL_CHARGE>
0

> <PUBCHEM_HEAVY_ATOM_COUNT>
29

> <PUBCHEM_ATOM_DEF_STEREO_COUNT>
0

> <PUBCHEM_ATOM_UDEF_STEREO_COUNT>
0

> <PUBCHEM_BOND_DEF_STEREO_COUNT>
0

> <PUBCHEM_BOND_UDEF_STEREO_COUNT>
0

> <PUBCHEM_ISOTOPIC_ATOM_COUNT>
0

> <PUBCHEM_COMPONENT_COUNT>
1

> <PUBCHEM_CACTVS_TAUTO_COUNT>
-1

> <PUBCHEM_COORDINATE_TYPE>
1
5
255

> <PUBCHEM_BONDANNOTATIONS>
10  29  8
11  15  8
11  16  8
12  14  8
13  17  8
13  18  8
14  22  8
15  17  8
16  18  8
19  21  8
19  23  8
20  21  8
20  26  8
22  29  8
23  27  8
26  27  8
9  10  8
9  12  8

$$$$
