54613583
  -OEChem-03202500422D

 40 43  0     1  0  0  0  0  0999 V2000
    4.0327    3.7254    0.0000 Cl  0  0  0  0  0  0  0  0  0  0  0  0
    2.0000    3.5294    0.0000 Cl  0  0  0  0  0  0  0  0  0  0  0  0
    7.1395    0.8946    0.0000 O   0  0  0  0  0  0  0  0  0  0  0  0
    6.2735   -0.6054    0.0000 N   0  0  0  0  0  0  0  0  0  0  0  0
    5.4075   -3.1054    0.0000 N   0  0  0  0  0  0  0  0  0  0  0  0
    5.1983    1.8664    0.0000 N   0  0  0  0  0  0  0  0  0  0  0  0
    2.8094   -1.6054    0.0000 N   0  0  0  0  0  0  0  0  0  0  0  0
    5.4075   -1.1054    0.0000 C   0  0  0  0  0  0  0  0  0  0  0  0
    4.5414   -0.6054    0.0000 C   0  0  3  0  0  0  0  0  0  0  0  0
    4.5414   -1.6054    0.0000 C   0  0  0  0  0  0  0  0  0  0  0  0
    6.2735   -1.6054    0.0000 C   0  0  0  0  0  0  0  0  0  0  0  0
    4.5414    0.3946    0.0000 C   0  0  0  0  0  0  0  0  0  0  0  0
    4.5414   -2.6054    0.0000 C   0  0  0  0  0  0  0  0  0  0  0  0
    6.2735   -2.6054    0.0000 C   0  0  0  0  0  0  0  0  0  0  0  0
    5.4075    0.8946    0.0000 C   0  0  0  0  0  0  0  0  0  0  0  0
    6.2735    0.3946    0.0000 C   0  0  0  0  0  0  0  0  0  0  0  0
    3.8044    1.0617    0.0000 C   0  0  0  0  0  0  0  0  0  0  0  0
    4.2096    1.9695    0.0000 C   0  0  0  0  0  0  0  0  0  0  0  0
    3.6754   -1.1054    0.0000 C   0  0  0  0  0  0  0  0  0  0  0  0
    2.7763    0.9385    0.0000 C   0  0  0  0  0  0  0  0  0  0  0  0
    5.8661    2.6107    0.0000 C   0  0  0  0  0  0  0  0  0  0  0  0
    3.6146    2.8170    0.0000 C   0  0  0  0  0  0  0  0  0  0  0  0
    2.1620    1.7720    0.0000 C   0  0  0  0  0  0  0  0  0  0  0  0
    2.5840    2.7176    0.0000 C   0  0  0  0  0  0  0  0  0  0  0  0
    4.0045   -0.2954    0.0000 H   0  0  0  0  0  0  0  0  0  0  0  0
    4.3294   -1.0228    0.0000 H   0  0  0  0  0  0  0  0  0  0  0  0
    3.9309   -1.7131    0.0000 H   0  0  0  0  0  0  0  0  0  0  0  0
    6.8841   -1.7131    0.0000 H   0  0  0  0  0  0  0  0  0  0  0  0
    6.4856   -1.0228    0.0000 H   0  0  0  0  0  0  0  0  0  0  0  0
    6.8104   -0.9154    0.0000 H   0  0  0  0  0  0  0  0  0  0  0  0
    3.9309   -2.4977    0.0000 H   0  0  0  0  0  0  0  0  0  0  0  0
    4.3294   -3.1880    0.0000 H   0  0  0  0  0  0  0  0  0  0  0  0
    6.4856   -3.1880    0.0000 H   0  0  0  0  0  0  0  0  0  0  0  0
    6.8841   -2.4977    0.0000 H   0  0  0  0  0  0  0  0  0  0  0  0
    5.4075   -3.7254    0.0000 H   0  0  0  0  0  0  0  0  0  0  0  0
    2.5302    0.3694    0.0000 H   0  0  0  0  0  0  0  0  0  0  0  0
    6.3276    2.1967    0.0000 H   0  0  0  0  0  0  0  0  0  0  0  0
    6.2802    3.0722    0.0000 H   0  0  0  0  0  0  0  0  0  0  0  0
    5.4046    3.0248    0.0000 H   0  0  0  0  0  0  0  0  0  0  0  0
    1.5456    1.7054    0.0000 H   0  0  0  0  0  0  0  0  0  0  0  0
  1 22  1  0  0  0  0
  2 24  1  0  0  0  0
  3 16  2  0  0  0  0
  4  8  1  0  0  0  0
  4 16  1  0  0  0  0
  4 30  1  0  0  0  0
  5 13  1  0  0  0  0
  5 14  1  0  0  0  0
  5 35  1  0  0  0  0
  6 15  1  0  0  0  0
  6 18  1  0  0  0  0
  6 21  1  0  0  0  0
  7 19  3  0  0  0  0
  8  9  1  0  0  0  0
  8 10  1  0  0  0  0
  8 11  1  0  0  0  0
  9 12  1  0  0  0  0
  9 19  1  0  0  0  0
  9 25  1  0  0  0  0
 10 13  1  0  0  0  0
 10 26  1  0  0  0  0
 10 27  1  0  0  0  0
 11 14  1  0  0  0  0
 11 28  1  0  0  0  0
 11 29  1  0  0  0  0
 12 15  2  0  0  0  0
 12 17  1  0  0  0  0
 13 31  1  0  0  0  0
 13 32  1  0  0  0  0
 14 33  1  0  0  0  0
 14 34  1  0  0  0  0
 15 16  1  0  0  0  0
 17 18  2  0  0  0  0
 17 20  1  0  0  0  0
 18 22  1  0  0  0  0
 20 23  2  0  0  0  0
 20 36  1  0  0  0  0
 21 37  1  0  0  0  0
 21 38  1  0  0  0  0
 21 39  1  0  0  0  0
 22 24  2  0  0  0  0
 23 24  1  0  0  0  0
 23 40  1  0  0  0  0
M  END
> <PUBCHEM_COMPOUND_CID>
54613583

> <PUBCHEM_COMPOUND_CANONICALIZED>
1

> <PUBCHEM_CACTVS_COMPLEXITY>
584

> <PUBCHEM_CACTVS_HBOND_ACCEPTOR>
3

> <PUBCHEM_CACTVS_HBOND_DONOR>
2

> <PUBCHEM_CACTVS_ROTATABLE_BOND>
0

> <PUBCHEM_CACTVS_SUBSKEYS>
AAADceB7oAAGAAAAAAAAAAAAAAAAAWAAAAA8WIAAAAAAAFgB8AAAHgIQAAAADYrBniQywPPMEAC4ByVyVACCgCAnBSAI2uGoRtgI4PLB1rHUIQhglADIyQ8YicCehAAAIAICABQIAABABAQAKAAAAAAAAA==

> <PUBCHEM_IUPAC_OPENEYE_NAME>
7,8-dichloro-9-methyl-1-oxo-spiro[2,4-dihydropyrido[3,4-b]indole-3,4'-piperidine]-4-carbonitrile

> <PUBCHEM_IUPAC_CAS_NAME>
7,8-dichloro-9-methyl-1-oxo-4-spiro[2,4-dihydropyrido[3,4-b]indole-3,4'-piperidine]carbonitrile

> <PUBCHEM_IUPAC_NAME_MARKUP>
7,8-dichloro-9-methyl-1-oxospiro[2,4-dihydropyrido[3,4-b]indole-3,4&apos;-piperidine]-4-carbonitrile

> <PUBCHEM_IUPAC_NAME>
7,8-dichloro-9-methyl-1-oxospiro[2,4-dihydropyrido[3,4-b]indole-3,4'-piperidine]-4-carbonitrile

> <PUBCHEM_IUPAC_SYSTEMATIC_NAME>
7,8-bis(chloranyl)-9-methyl-1-oxidanylidene-spiro[2,4-dihydropyrido[3,4-b]indole-3,4'-piperidine]-4-carbonitrile

> <PUBCHEM_IUPAC_TRADITIONAL_NAME>
7,8-dichloro-1-keto-9-methyl-spiro[2,4-dihydro-beta-carboline-3,4'-piperidine]-4-carbonitrile

> <PUBCHEM_IUPAC_INCHI>
InChI=1S/C17H16Cl2N4O/c1-23-14-9(2-3-11(18)13(14)19)12-10(8-20)17(4-6-21-7-5-17)22-16(24)15(12)23/h2-3,10,21H,4-7H2,1H3,(H,22,24)

> <PUBCHEM_IUPAC_INCHIKEY>
OWAWOKKHZNRHGV-UHFFFAOYSA-N

> <PUBCHEM_XLOGP3_AA>
2.3

> <PUBCHEM_EXACT_MASS>
362.0701165

> <PUBCHEM_MOLECULAR_FORMULA>
C17H16Cl2N4O

> <PUBCHEM_MOLECULAR_WEIGHT>
363.2

> <PUBCHEM_SMILES>
CN1C2=C(C=CC(=C2Cl)Cl)C3=C1C(=O)NC4(C3C#N)CCNCC4

> <PUBCHEM_OPENEYE_CAN_SMILES>
CN1C2=C(C=CC(=C2Cl)Cl)C3=C1C(=O)NC4(C3C#N)CCNCC4

> <PUBCHEM_OPENEYE_ISO_SMILES>
CN1C2=C(C=CC(=C2Cl)Cl)C3=C1C(=O)NC4(C3C#N)CCNCC4

> <PUBCHEM_CACTVS_TPSA>
69.9

> <PUBCHEM_MONOISOTOPIC_WEIGHT>
362.0701165

> <PUBCHEM_TOTAL_CHARGE>
0

> <PUBCHEM_HEAVY_ATOM_COUNT>
24

> <PUBCHEM_ATOM_DEF_STEREO_COUNT>
0

> <PUBCHEM_ATOM_UDEF_STEREO_COUNT>
1

> <PUBCHEM_BOND_DEF_STEREO_COUNT>
0

> <PUBCHEM_BOND_UDEF_STEREO_COUNT>
0

> <PUBCHEM_ISOTOPIC_ATOM_COUNT>
0

> <PUBCHEM_COMPONENT_COUNT>
1

> <PUBCHEM_CACTVS_TAUTO_COUNT>
-1

> <PUBCHEM_COORDINATE_TYPE>
1
5
255

> <PUBCHEM_BONDANNOTATIONS>
12  15  8
12  17  8
17  18  8
17  20  8
18  22  8
20  23  8
22  24  8
23  24  8
6  15  8
6  18  8
9  19  3

$$$$
