24859296
  -OEChem-03202501512D

 31 33  0     0  0  0  0  0  0999 V2000
    2.9176   -3.7673    0.0000 F   0  0  0  0  0  0  0  0  0  0  0  0
    6.3981    0.2673    0.0000 O   0  0  0  0  0  0  0  0  0  0  0  0
    4.6660    0.2673    0.0000 N   0  0  0  0  0  0  0  0  0  0  0  0
    4.6660   -2.7327    0.0000 N   0  0  0  0  0  0  0  0  0  0  0  0
    5.5321    1.7673    0.0000 N   0  0  0  0  0  0  0  0  0  0  0  0
    7.2641    1.7673    0.0000 N   0  0  0  0  0  0  0  0  0  0  0  0
    7.2641    3.7673    0.0000 N   0  0  0  0  0  0  0  0  0  0  0  0
    3.8000   -1.2327    0.0000 C   0  0  0  0  0  0  0  0  0  0  0  0
    4.6660   -0.7327    0.0000 C   0  0  0  0  0  0  0  0  0  0  0  0
    3.8000   -2.2327    0.0000 C   0  0  0  0  0  0  0  0  0  0  0  0
    2.9061   -0.6980    0.0000 C   0  0  0  0  0  0  0  0  0  0  0  0
    5.5321   -1.2327    0.0000 C   0  0  0  0  0  0  0  0  0  0  0  0
    2.9061   -2.7674    0.0000 C   0  0  0  0  0  0  0  0  0  0  0  0
    2.0000   -1.2119    0.0000 C   0  0  0  0  0  0  0  0  0  0  0  0
    2.0000   -2.2535    0.0000 C   0  0  0  0  0  0  0  0  0  0  0  0
    5.5321   -2.2327    0.0000 C   0  0  0  0  0  0  0  0  0  0  0  0
    5.5321    0.7673    0.0000 C   0  0  0  0  0  0  0  0  0  0  0  0
    6.3981    2.2673    0.0000 C   0  0  0  0  0  0  0  0  0  0  0  0
    6.3981    3.2673    0.0000 C   0  0  0  0  0  0  0  0  0  0  0  0
    8.1301    2.2673    0.0000 C   0  0  0  0  0  0  0  0  0  0  0  0
    8.1301    3.2673    0.0000 C   0  0  0  0  0  0  0  0  0  0  0  0
    2.9132   -0.0781    0.0000 H   0  0  0  0  0  0  0  0  0  0  0  0
    6.0690   -0.9227    0.0000 H   0  0  0  0  0  0  0  0  0  0  0  0
    4.1291    0.5773    0.0000 H   0  0  0  0  0  0  0  0  0  0  0  0
    1.4643   -0.8998    0.0000 H   0  0  0  0  0  0  0  0  0  0  0  0
    1.4643   -2.5656    0.0000 H   0  0  0  0  0  0  0  0  0  0  0  0
    6.0690   -2.5427    0.0000 H   0  0  0  0  0  0  0  0  0  0  0  0
    4.9951    2.0773    0.0000 H   0  0  0  0  0  0  0  0  0  0  0  0
    5.8612    3.5773    0.0000 H   0  0  0  0  0  0  0  0  0  0  0  0
    8.6671    1.9573    0.0000 H   0  0  0  0  0  0  0  0  0  0  0  0
    8.6671    3.5773    0.0000 H   0  0  0  0  0  0  0  0  0  0  0  0
  1 13  1  0  0  0  0
  2 17  2  0  0  0  0
  3  9  1  0  0  0  0
  3 17  1  0  0  0  0
  3 24  1  0  0  0  0
  4 10  2  0  0  0  0
  4 16  1  0  0  0  0
  5 17  1  0  0  0  0
  5 18  1  0  0  0  0
  5 28  1  0  0  0  0
  6 18  2  0  0  0  0
  6 20  1  0  0  0  0
  7 19  2  0  0  0  0
  7 21  1  0  0  0  0
  8  9  2  0  0  0  0
  8 10  1  0  0  0  0
  8 11  1  0  0  0  0
  9 12  1  0  0  0  0
 10 13  1  0  0  0  0
 11 14  2  0  0  0  0
 11 22  1  0  0  0  0
 12 16  2  0  0  0  0
 12 23  1  0  0  0  0
 13 15  2  0  0  0  0
 14 15  1  0  0  0  0
 14 25  1  0  0  0  0
 15 26  1  0  0  0  0
 16 27  1  0  0  0  0
 18 19  1  0  0  0  0
 19 29  1  0  0  0  0
 20 21  2  0  0  0  0
 20 30  1  0  0  0  0
 21 31  1  0  0  0  0
M  END
> <PUBCHEM_COMPOUND_CID>
24859296

> <PUBCHEM_COMPOUND_CANONICALIZED>
1

> <PUBCHEM_CACTVS_COMPLEXITY>
369

> <PUBCHEM_CACTVS_HBOND_ACCEPTOR>
5

> <PUBCHEM_CACTVS_HBOND_DONOR>
2

> <PUBCHEM_CACTVS_ROTATABLE_BOND>
2

> <PUBCHEM_CACTVS_SUBSKEYS>
AAADccBzoQAAAAAAAAAAAAAAAAAAAAAAAAA8WIAAAAAAAACx/AAAHwAQAAAADAjBHgw98PLIEACoAzZndACCgC0xEiAJ2CA4dJiIYOLA0dGUJAholQLIyCcQgIAOAAAAAAACAAAAAAAAAAQAAAAAAAAAAA==

> <PUBCHEM_IUPAC_OPENEYE_NAME>
1-(8-fluoro-4-quinolyl)-3-pyrazin-2-yl-urea

> <PUBCHEM_IUPAC_CAS_NAME>
1-(8-fluoro-4-quinolinyl)-3-(2-pyrazinyl)urea

> <PUBCHEM_IUPAC_NAME_MARKUP>
1-(8-fluoroquinolin-4-yl)-3-pyrazin-2-ylurea

> <PUBCHEM_IUPAC_NAME>
1-(8-fluoroquinolin-4-yl)-3-pyrazin-2-ylurea

> <PUBCHEM_IUPAC_SYSTEMATIC_NAME>
1-(8-fluoranylquinolin-4-yl)-3-pyrazin-2-yl-urea

> <PUBCHEM_IUPAC_TRADITIONAL_NAME>
1-(8-fluoro-4-quinolyl)-3-pyrazin-2-yl-urea

> <PUBCHEM_IUPAC_INCHI>
InChI=1S/C14H10FN5O/c15-10-3-1-2-9-11(4-5-18-13(9)10)19-14(21)20-12-8-16-6-7-17-12/h1-8H,(H2,17,18,19,20,21)

> <PUBCHEM_IUPAC_INCHIKEY>
NSDIHUXUFJHXRA-UHFFFAOYSA-N

> <PUBCHEM_XLOGP3_AA>
1

> <PUBCHEM_EXACT_MASS>
283.08693812

> <PUBCHEM_MOLECULAR_FORMULA>
C14H10FN5O

> <PUBCHEM_MOLECULAR_WEIGHT>
283.26

> <PUBCHEM_SMILES>
C1=CC2=C(C=CN=C2C(=C1)F)NC(=O)NC3=NC=CN=C3

> <PUBCHEM_OPENEYE_CAN_SMILES>
C1=CC2=C(C=CN=C2C(=C1)F)NC(=O)NC3=NC=CN=C3

> <PUBCHEM_OPENEYE_ISO_SMILES>
C1=CC2=C(C=CN=C2C(=C1)F)NC(=O)NC3=NC=CN=C3

> <PUBCHEM_CACTVS_TPSA>
79.8

> <PUBCHEM_MONOISOTOPIC_WEIGHT>
283.08693812

> <PUBCHEM_TOTAL_CHARGE>
0

> <PUBCHEM_HEAVY_ATOM_COUNT>
21

> <PUBCHEM_ATOM_DEF_STEREO_COUNT>
0

> <PUBCHEM_ATOM_UDEF_STEREO_COUNT>
0

> <PUBCHEM_BOND_DEF_STEREO_COUNT>
0

> <PUBCHEM_BOND_UDEF_STEREO_COUNT>
0

> <PUBCHEM_ISOTOPIC_ATOM_COUNT>
0

> <PUBCHEM_COMPONENT_COUNT>
1

> <PUBCHEM_CACTVS_TAUTO_COUNT>
-1

> <PUBCHEM_COORDINATE_TYPE>
1
5
255

> <PUBCHEM_BONDANNOTATIONS>
10  13  8
11  14  8
12  16  8
13  15  8
14  15  8
18  19  8
20  21  8
4  10  8
4  16  8
6  18  8
6  20  8
7  19  8
7  21  8
8  10  8
8  11  8
8  9  8
9  12  8

$$$$
