44364200
  -OEChem-03202505402D

 52 59  0     1  0  0  0  0  0999 V2000
    8.1943   -2.7437    0.0000 O   0  0  0  0  0  0  0  0  0  0  0  0
    9.4179    0.6180    0.0000 O   0  0  0  0  0  0  0  0  0  0  0  0
    4.1427    2.3172    0.0000 N   0  0  0  0  0  0  0  0  0  0  0  0
    4.7407   -0.6474    0.0000 N   0  0  0  0  0  0  0  0  0  0  0  0
    5.4248    1.2320    0.0000 N   0  0  0  0  0  0  0  0  0  0  0  0
    9.0854   -1.1645    0.0000 N   0  0  0  0  0  0  0  0  0  0  0  0
    3.6649    0.3687    0.0000 C   0  0  2  0  0  0  0  0  0  0  0  0
    3.4061    1.3346    0.0000 C   0  0  1  0  0  0  0  0  0  0  0  0
    2.3933   -0.4260    0.0000 C   0  0  0  0  0  0  0  0  0  0  0  0
    1.9745    1.1369    0.0000 C   0  0  0  0  0  0  0  0  0  0  0  0
    5.7256   -0.4737    0.0000 C   0  0  0  0  0  0  0  0  0  0  0  0
    6.0676    0.4660    0.0000 C   0  0  0  0  0  0  0  0  0  0  0  0
    1.6161    0.2034    0.0000 C   0  0  0  0  0  0  0  0  0  0  0  0
    6.3827   -1.2819    0.0000 C   0  0  0  0  0  0  0  0  0  0  0  0
    7.0905    0.6626    0.0000 C   0  0  0  0  0  0  0  0  0  0  0  0
    4.7677   -1.6408    0.0000 C   0  0  0  0  0  0  0  0  0  0  0  0
    6.0840    1.9757    0.0000 C   0  0  0  0  0  0  0  0  0  0  0  0
    5.6947   -1.9990    0.0000 C   0  0  0  0  0  0  0  0  0  0  0  0
    7.0244    1.6543    0.0000 C   0  0  0  0  0  0  0  0  0  0  0  0
    7.4099   -1.1089    0.0000 C   0  0  0  0  0  0  0  0  0  0  0  0
    7.7661   -0.1301    0.0000 C   0  0  0  0  0  0  0  0  0  0  0  0
    4.6427    3.1832    0.0000 C   0  0  0  0  0  0  0  0  0  0  0  0
    3.9518   -2.2780    0.0000 C   0  0  0  0  0  0  0  0  0  0  0  0
    5.8686    2.9882    0.0000 C   0  0  0  0  0  0  0  0  0  0  0  0
    8.2275   -1.7443    0.0000 C   0  0  0  0  0  0  0  0  0  0  0  0
    8.8009   -0.1689    0.0000 C   0  0  0  0  0  0  0  0  0  0  0  0
    5.8701   -3.0193    0.0000 C   0  0  0  0  0  0  0  0  0  0  0  0
    7.8146    2.3231    0.0000 C   0  0  0  0  0  0  0  0  0  0  0  0
    4.1036   -3.3020    0.0000 C   0  0  0  0  0  0  0  0  0  0  0  0
    6.6430    3.6751    0.0000 C   0  0  0  0  0  0  0  0  0  0  0  0
    5.0692   -3.6751    0.0000 C   0  0  0  0  0  0  0  0  0  0  0  0
    7.6226    3.3403    0.0000 C   0  0  0  0  0  0  0  0  0  0  0  0
    3.8849   -0.4524    0.0000 H   0  0  0  0  0  0  0  0  0  0  0  0
    3.1861    2.1556    0.0000 H   0  0  0  0  0  0  0  0  0  0  0  0
    2.7778   -0.9123    0.0000 H   0  0  0  0  0  0  0  0  0  0  0  0
    1.9523   -0.8618    0.0000 H   0  0  0  0  0  0  0  0  0  0  0  0
    1.3667    1.2593    0.0000 H   0  0  0  0  0  0  0  0  0  0  0  0
    1.9935    1.7566    0.0000 H   0  0  0  0  0  0  0  0  0  0  0  0
    1.2784   -0.3166    0.0000 H   0  0  0  0  0  0  0  0  0  0  0  0
    1.0637    0.4848    0.0000 H   0  0  0  0  0  0  0  0  0  0  0  0
    4.1058    3.4932    0.0000 H   0  0  0  0  0  0  0  0  0  0  0  0
    4.9527    3.7202    0.0000 H   0  0  0  0  0  0  0  0  0  0  0  0
    5.1797    2.8732    0.0000 H   0  0  0  0  0  0  0  0  0  0  0  0
    3.3761   -2.0478    0.0000 H   0  0  0  0  0  0  0  0  0  0  0  0
    5.2796    3.1820    0.0000 H   0  0  0  0  0  0  0  0  0  0  0  0
    6.4510   -3.2360    0.0000 H   0  0  0  0  0  0  0  0  0  0  0  0
    8.3989    2.1157    0.0000 H   0  0  0  0  0  0  0  0  0  0  0  0
    9.6680   -1.3766    0.0000 H   0  0  0  0  0  0  0  0  0  0  0  0
    3.6194   -3.6892    0.0000 H   0  0  0  0  0  0  0  0  0  0  0  0
    6.5210    4.2830    0.0000 H   0  0  0  0  0  0  0  0  0  0  0  0
    5.1672   -4.2873    0.0000 H   0  0  0  0  0  0  0  0  0  0  0  0
    8.0912    3.7463    0.0000 H   0  0  0  0  0  0  0  0  0  0  0  0
  1 25  2  0  0  0  0
  2 26  2  0  0  0  0
  3  7  1  0  0  0  0
  3  8  1  0  0  0  0
  3 22  1  0  0  0  0
  4  7  1  0  0  0  0
  4 11  1  0  0  0  0
  4 16  1  0  0  0  0
  5  8  1  0  0  0  0
  5 12  1  0  0  0  0
  5 17  1  0  0  0  0
  6 25  1  0  0  0  0
  6 26  1  0  0  0  0
  6 48  1  0  0  0  0
  7  9  1  0  0  0  0
  7 33  1  1  0  0  0
  8 10  1  0  0  0  0
  8 34  1  6  0  0  0
  9 13  1  0  0  0  0
  9 35  1  0  0  0  0
  9 36  1  0  0  0  0
 10 13  1  0  0  0  0
 10 37  1  0  0  0  0
 10 38  1  0  0  0  0
 11 12  2  0  0  0  0
 11 14  1  0  0  0  0
 12 15  1  0  0  0  0
 13 39  1  0  0  0  0
 13 40  1  0  0  0  0
 14 18  1  0  0  0  0
 14 20  2  0  0  0  0
 15 19  1  0  0  0  0
 15 21  2  0  0  0  0
 16 18  1  0  0  0  0
 16 23  2  0  0  0  0
 17 19  1  0  0  0  0
 17 24  2  0  0  0  0
 18 27  2  0  0  0  0
 19 28  2  0  0  0  0
 20 21  1  0  0  0  0
 20 25  1  0  0  0  0
 21 26  1  0  0  0  0
 22 41  1  0  0  0  0
 22 42  1  0  0  0  0
 22 43  1  0  0  0  0
 23 29  1  0  0  0  0
 23 44  1  0  0  0  0
 24 30  1  0  0  0  0
 24 45  1  0  0  0  0
 27 31  1  0  0  0  0
 27 46  1  0  0  0  0
 28 32  1  0  0  0  0
 28 47  1  0  0  0  0
 29 31  2  0  0  0  0
 29 49  1  0  0  0  0
 30 32  2  0  0  0  0
 30 50  1  0  0  0  0
 31 51  1  0  0  0  0
 32 52  1  0  0  0  0
M  END
> <PUBCHEM_COMPOUND_CID>
44364200

> <PUBCHEM_COMPOUND_CANONICALIZED>
1

> <PUBCHEM_CACTVS_COMPLEXITY>
797

> <PUBCHEM_CACTVS_HBOND_ACCEPTOR>
3

> <PUBCHEM_CACTVS_HBOND_DONOR>
1

> <PUBCHEM_CACTVS_ROTATABLE_BOND>
0

> <PUBCHEM_CACTVS_SUBSKEYS>
AAADceB7sAAAAAAAAAAAAAAAAAAAAWLFgAA8YMEABYAAAFix/gAAHgAQAAAADAjBngQzwPPMEACoAyVyVACCgCQlEiAI2CE4dNiIYPLAlZGUIQhohCLIyScdicCeyAACQAASACCQAASAACQAQAAAAAAAAA==

> <PUBCHEM_IUPAC_OPENEYE_NAME>
(2S,6R)-29-methyl-1,7,17,29-tetrazaoctacyclo[12.12.2.12,6.07,28.08,13.015,19.020,27.021,26]nonacosa-8,10,12,14,19,21,23,25,27-nonaene-16,18-dione

> <PUBCHEM_IUPAC_CAS_NAME>
(2S,6R)-29-methyl-1,7,17,29-tetrazaoctacyclo[12.12.2.12,6.07,28.08,13.015,19.020,27.021,26]nonacosa-8,10,12,14,19,21,23,25,27-nonaene-16,18-dione

> <PUBCHEM_IUPAC_NAME_MARKUP>
(2<I>S</I>,6<I>R</I>)-29-methyl-1,7,17,29-tetrazaoctacyclo[12.12.2.1<SUP>2,6</SUP>.0<SUP>7,28</SUP>.0<SUP>8,13</SUP>.0<SUP>15,19</SUP>.0<SUP>20,27</SUP>.0<SUP>21,26</SUP>]nonacosa-8,10,12,14,19,21,23,25,27-nonaene-16,18-dione

> <PUBCHEM_IUPAC_NAME>
(2S,6R)-29-methyl-1,7,17,29-tetrazaoctacyclo[12.12.2.12,6.07,28.08,13.015,19.020,27.021,26]nonacosa-8,10,12,14,19,21,23,25,27-nonaene-16,18-dione

> <PUBCHEM_IUPAC_SYSTEMATIC_NAME>
(2S,6R)-29-methyl-1,7,17,29-tetrazaoctacyclo[12.12.2.12,6.07,28.08,13.015,19.020,27.021,26]nonacosa-8,10,12,14,19,21,23,25,27-nonaene-16,18-dione

> <PUBCHEM_IUPAC_TRADITIONAL_NAME>
(2S,6R)-29-methyl-1,7,17,29-tetrazaoctacyclo[12.12.2.12,6.07,28.08,13.015,19.020,27.021,26]nonacosa-8,10,12,14,19,21,23,25,27-nonaene-16,18-quinone

> <PUBCHEM_IUPAC_INCHI>
InChI=1S/C26H20N4O2/c1-28-17-11-6-12-18(28)30-16-10-5-3-8-14(16)20-22-21(25(31)27-26(22)32)19-13-7-2-4-9-15(13)29(17)23(19)24(20)30/h2-5,7-10,17-18H,6,11-12H2,1H3,(H,27,31,32)/t17-,18+

> <PUBCHEM_IUPAC_INCHIKEY>
SSZFVGXDYBMVDD-HDICACEKSA-N

> <PUBCHEM_XLOGP3_AA>
4.3

> <PUBCHEM_EXACT_MASS>
420.15862589

> <PUBCHEM_MOLECULAR_FORMULA>
C26H20N4O2

> <PUBCHEM_MOLECULAR_WEIGHT>
420.5

> <PUBCHEM_SMILES>
CN1[C@H]2CCC[C@@H]1N3C4=CC=CC=C4C5=C6C(=C7C8=CC=CC=C8N2C7=C53)C(=O)NC6=O

> <PUBCHEM_OPENEYE_CAN_SMILES>
CN1C2CCCC1N3C4=CC=CC=C4C5=C6C(=C7C8=CC=CC=C8N2C7=C53)C(=O)NC6=O

> <PUBCHEM_OPENEYE_ISO_SMILES>
CN1[C@H]2CCC[C@@H]1N3C4=CC=CC=C4C5=C6C(=C7C8=CC=CC=C8N2C7=C53)C(=O)NC6=O

> <PUBCHEM_CACTVS_TPSA>
59.3

> <PUBCHEM_MONOISOTOPIC_WEIGHT>
420.15862589

> <PUBCHEM_TOTAL_CHARGE>
0

> <PUBCHEM_HEAVY_ATOM_COUNT>
32

> <PUBCHEM_ATOM_DEF_STEREO_COUNT>
2

> <PUBCHEM_ATOM_UDEF_STEREO_COUNT>
0

> <PUBCHEM_BOND_DEF_STEREO_COUNT>
0

> <PUBCHEM_BOND_UDEF_STEREO_COUNT>
0

> <PUBCHEM_ISOTOPIC_ATOM_COUNT>
0

> <PUBCHEM_COMPONENT_COUNT>
1

> <PUBCHEM_CACTVS_TAUTO_COUNT>
-1

> <PUBCHEM_COORDINATE_TYPE>
1
5
255

> <PUBCHEM_BONDANNOTATIONS>
11  12  8
11  14  8
12  15  8
14  18  8
14  20  8
15  19  8
15  21  8
16  18  8
16  23  8
17  19  8
17  24  8
18  27  8
19  28  8
20  21  8
23  29  8
24  30  8
27  31  8
28  32  8
29  31  8
30  32  8
4  11  8
4  16  8
5  12  8
5  17  8
7  33  5
8  34  6

$$$$
