49830444
  -OEChem-03202504152D

 35 37  0     0  0  0  0  0  0999 V2000
    2.8660    1.1370    0.0000 S   0  0  0  0  0  0  0  0  0  0  0  0
    2.3660    2.0030    0.0000 O   0  0  0  0  0  0  0  0  0  0  0  0
    3.3660    0.2710    0.0000 O   0  0  0  0  0  0  0  0  0  0  0  0
    9.8744   -1.6677    0.0000 N   0  0  0  0  0  0  0  0  0  0  0  0
    3.7320    1.6370    0.0000 N   0  0  0  0  0  0  0  0  0  0  0  0
   10.4580   -0.8630    0.0000 N   0  0  0  0  0  0  0  0  0  0  0  0
   10.1851    0.8923    0.0000 N   0  0  0  0  0  0  0  0  0  0  0  0
    7.1962   -0.3630    0.0000 C   0  0  0  0  0  0  0  0  0  0  0  0
    8.9282   -0.3630    0.0000 C   0  0  0  0  0  0  0  0  0  0  0  0
    6.3301    0.1370    0.0000 C   0  0  0  0  0  0  0  0  0  0  0  0
    8.9282   -1.3630    0.0000 C   0  0  0  0  0  0  0  0  0  0  0  0
    8.0622    0.1370    0.0000 C   0  0  0  0  0  0  0  0  0  0  0  0
    7.1962   -1.3630    0.0000 C   0  0  0  0  0  0  0  0  0  0  0  0
    8.0622   -1.8630    0.0000 C   0  0  0  0  0  0  0  0  0  0  0  0
    4.5981    1.1370    0.0000 C   0  0  0  0  0  0  0  0  0  0  0  0
    9.8744   -0.0582    0.0000 C   0  0  0  0  0  0  0  0  0  0  0  0
    5.4641   -0.3630    0.0000 C   0  0  0  0  0  0  0  0  0  0  0  0
    6.3301    1.1370    0.0000 C   0  0  0  0  0  0  0  0  0  0  0  0
    4.5981    0.1370    0.0000 C   0  0  0  0  0  0  0  0  0  0  0  0
    5.4641    1.6370    0.0000 C   0  0  0  0  0  0  0  0  0  0  0  0
    2.0000    0.6370    0.0000 C   0  0  0  0  0  0  0  0  0  0  0  0
    8.0622    0.7570    0.0000 H   0  0  0  0  0  0  0  0  0  0  0  0
    6.6592   -1.6730    0.0000 H   0  0  0  0  0  0  0  0  0  0  0  0
    8.0622   -2.4830    0.0000 H   0  0  0  0  0  0  0  0  0  0  0  0
    5.4641   -0.9830    0.0000 H   0  0  0  0  0  0  0  0  0  0  0  0
    6.8671    1.4470    0.0000 H   0  0  0  0  0  0  0  0  0  0  0  0
    4.0611   -0.1730    0.0000 H   0  0  0  0  0  0  0  0  0  0  0  0
    5.4641    2.2570    0.0000 H   0  0  0  0  0  0  0  0  0  0  0  0
   10.0670   -2.2570    0.0000 H   0  0  0  0  0  0  0  0  0  0  0  0
    3.7320    2.2570    0.0000 H   0  0  0  0  0  0  0  0  0  0  0  0
    1.6900    1.1740    0.0000 H   0  0  0  0  0  0  0  0  0  0  0  0
    1.4631    0.3270    0.0000 H   0  0  0  0  0  0  0  0  0  0  0  0
    2.3100    0.1001    0.0000 H   0  0  0  0  0  0  0  0  0  0  0  0
   10.7918    1.0201    0.0000 H   0  0  0  0  0  0  0  0  0  0  0  0
    9.7710    1.3538    0.0000 H   0  0  0  0  0  0  0  0  0  0  0  0
  1  2  2  0  0  0  0
  1  3  2  0  0  0  0
  1  5  1  0  0  0  0
  1 21  1  0  0  0  0
  4  6  1  0  0  0  0
  4 11  1  0  0  0  0
  4 29  1  0  0  0  0
  5 15  1  0  0  0  0
  5 30  1  0  0  0  0
  6 16  2  0  0  0  0
  7 16  1  0  0  0  0
  7 34  1  0  0  0  0
  7 35  1  0  0  0  0
  8 10  1  0  0  0  0
  8 12  2  0  0  0  0
  8 13  1  0  0  0  0
  9 11  2  0  0  0  0
  9 12  1  0  0  0  0
  9 16  1  0  0  0  0
 10 17  2  0  0  0  0
 10 18  1  0  0  0  0
 11 14  1  0  0  0  0
 12 22  1  0  0  0  0
 13 14  2  0  0  0  0
 13 23  1  0  0  0  0
 14 24  1  0  0  0  0
 15 19  2  0  0  0  0
 15 20  1  0  0  0  0
 17 19  1  0  0  0  0
 17 25  1  0  0  0  0
 18 20  2  0  0  0  0
 18 26  1  0  0  0  0
 19 27  1  0  0  0  0
 20 28  1  0  0  0  0
 21 31  1  0  0  0  0
 21 32  1  0  0  0  0
 21 33  1  0  0  0  0
M  END
> <PUBCHEM_COMPOUND_CID>
49830444

> <PUBCHEM_COMPOUND_CANONICALIZED>
1

> <PUBCHEM_CACTVS_COMPLEXITY>
456

> <PUBCHEM_CACTVS_HBOND_ACCEPTOR>
5

> <PUBCHEM_CACTVS_HBOND_DONOR>
3

> <PUBCHEM_CACTVS_ROTATABLE_BOND>
3

> <PUBCHEM_CACTVS_SUBSKEYS>
AAADccBzsABAAAAAAAAAAAAAAAAAAWAAAAAwYAAAAAAAAFgB9AAAHAQYQAAADAiBHgCz8PBjAAKiAyZiYHCSBAIgAgAcuSAwZJgIIKKA0dGApABwmAAIyAcQgMAOiAACAAACAAAQAAQAAAQAAAAAAAAAAA==

> <PUBCHEM_IUPAC_OPENEYE_NAME>
N-[4-(3-amino-1H-indazol-5-yl)phenyl]methanesulfonamide

> <PUBCHEM_IUPAC_CAS_NAME>
N-[4-(3-amino-1H-indazol-5-yl)phenyl]methanesulfonamide

> <PUBCHEM_IUPAC_NAME_MARKUP>
<I>N</I>-[4-(3-amino-1<I>H</I>-indazol-5-yl)phenyl]methanesulfonamide

> <PUBCHEM_IUPAC_NAME>
N-[4-(3-amino-1H-indazol-5-yl)phenyl]methanesulfonamide

> <PUBCHEM_IUPAC_SYSTEMATIC_NAME>
N-[4-(3-azanyl-1H-indazol-5-yl)phenyl]methanesulfonamide

> <PUBCHEM_IUPAC_TRADITIONAL_NAME>
N-[4-(3-amino-1H-indazol-5-yl)phenyl]methanesulfonamide

> <PUBCHEM_IUPAC_INCHI>
InChI=1S/C14H14N4O2S/c1-21(19,20)18-11-5-2-9(3-6-11)10-4-7-13-12(8-10)14(15)17-16-13/h2-8,18H,1H3,(H3,15,16,17)

> <PUBCHEM_IUPAC_INCHIKEY>
IJVDETPCUCZHTR-UHFFFAOYSA-N

> <PUBCHEM_XLOGP3_AA>
1.8

> <PUBCHEM_EXACT_MASS>
302.08374688

> <PUBCHEM_MOLECULAR_FORMULA>
C14H14N4O2S

> <PUBCHEM_MOLECULAR_WEIGHT>
302.35

> <PUBCHEM_SMILES>
CS(=O)(=O)NC1=CC=C(C=C1)C2=CC3=C(C=C2)NN=C3N

> <PUBCHEM_OPENEYE_CAN_SMILES>
CS(=O)(=O)NC1=CC=C(C=C1)C2=CC3=C(C=C2)NN=C3N

> <PUBCHEM_OPENEYE_ISO_SMILES>
CS(=O)(=O)NC1=CC=C(C=C1)C2=CC3=C(C=C2)NN=C3N

> <PUBCHEM_CACTVS_TPSA>
109

> <PUBCHEM_MONOISOTOPIC_WEIGHT>
302.08374688

> <PUBCHEM_TOTAL_CHARGE>
0

> <PUBCHEM_HEAVY_ATOM_COUNT>
21

> <PUBCHEM_ATOM_DEF_STEREO_COUNT>
0

> <PUBCHEM_ATOM_UDEF_STEREO_COUNT>
0

> <PUBCHEM_BOND_DEF_STEREO_COUNT>
0

> <PUBCHEM_BOND_UDEF_STEREO_COUNT>
0

> <PUBCHEM_ISOTOPIC_ATOM_COUNT>
0

> <PUBCHEM_COMPONENT_COUNT>
1

> <PUBCHEM_CACTVS_TAUTO_COUNT>
-1

> <PUBCHEM_COORDINATE_TYPE>
1
5
255

> <PUBCHEM_BONDANNOTATIONS>
10  17  8
10  18  8
11  14  8
13  14  8
15  19  8
15  20  8
17  19  8
18  20  8
4  11  8
4  6  8
6  16  8
8  12  8
8  13  8
9  11  8
9  12  8
9  16  8

$$$$
