57401151
  -OEChem-03202500422D

 47 50  0     0  0  0  0  0  0999 V2000
    2.0000    6.4474    0.0000 Cl  0  0  0  0  0  0  0  0  0  0  0  0
    4.0421    2.2603    0.0000 O   0  0  0  0  0  0  0  0  0  0  0  0
    5.7172    0.1725    0.0000 O   0  0  0  0  0  0  0  0  0  0  0  0
    3.9851   -3.8274    0.0000 N   0  0  0  0  0  0  0  0  0  0  0  0
    3.9851   -5.8275    0.0000 N   0  0  0  0  0  0  0  0  0  0  0  0
    3.9851    0.1725    0.0000 N   0  0  0  0  0  0  0  0  0  0  0  0
    3.1191   -4.3275    0.0000 C   0  0  0  0  0  0  0  0  0  0  0  0
    4.8511   -4.3275    0.0000 C   0  0  0  0  0  0  0  0  0  0  0  0
    3.1191   -5.3275    0.0000 C   0  0  0  0  0  0  0  0  0  0  0  0
    4.8511   -5.3275    0.0000 C   0  0  0  0  0  0  0  0  0  0  0  0
    3.9851   -2.8274    0.0000 C   0  0  0  0  0  0  0  0  0  0  0  0
    4.8511   -2.3274    0.0000 C   0  0  0  0  0  0  0  0  0  0  0  0
    3.1191   -2.3274    0.0000 C   0  0  0  0  0  0  0  0  0  0  0  0
    3.9851   -0.8275    0.0000 C   0  0  0  0  0  0  0  0  0  0  0  0
    4.8511   -1.3274    0.0000 C   0  0  0  0  0  0  0  0  0  0  0  0
    3.1191   -1.3274    0.0000 C   0  0  0  0  0  0  0  0  0  0  0  0
    4.8511    0.6725    0.0000 C   0  0  0  0  0  0  0  0  0  0  0  0
    4.8511    1.6726    0.0000 C   0  0  0  0  0  0  0  0  0  0  0  0
    4.3511    3.2114    0.0000 C   0  0  0  0  0  0  0  0  0  0  0  0
    3.7634    4.0204    0.0000 C   0  0  0  0  0  0  0  0  0  0  0  0
    5.6602    2.2603    0.0000 C   0  0  0  0  0  0  0  0  0  0  0  0
    5.3511    3.2114    0.0000 C   0  0  0  0  0  0  0  0  0  0  0  0
    4.1701    4.9340    0.0000 C   0  0  0  0  0  0  0  0  0  0  0  0
    2.7688    3.9159    0.0000 C   0  0  0  0  0  0  0  0  0  0  0  0
    3.5823    5.7430    0.0000 C   0  0  0  0  0  0  0  0  0  0  0  0
    2.1810    4.7249    0.0000 C   0  0  0  0  0  0  0  0  0  0  0  0
    2.5878    5.6384    0.0000 C   0  0  0  0  0  0  0  0  0  0  0  0
    2.9070   -3.7448    0.0000 H   0  0  0  0  0  0  0  0  0  0  0  0
    2.5085   -4.4351    0.0000 H   0  0  0  0  0  0  0  0  0  0  0  0
    5.4617   -4.4351    0.0000 H   0  0  0  0  0  0  0  0  0  0  0  0
    5.0632   -3.7448    0.0000 H   0  0  0  0  0  0  0  0  0  0  0  0
    2.5085   -5.2198    0.0000 H   0  0  0  0  0  0  0  0  0  0  0  0
    2.9070   -5.9101    0.0000 H   0  0  0  0  0  0  0  0  0  0  0  0
    5.0632   -5.9101    0.0000 H   0  0  0  0  0  0  0  0  0  0  0  0
    5.4617   -5.2198    0.0000 H   0  0  0  0  0  0  0  0  0  0  0  0
    3.9851   -6.4474    0.0000 H   0  0  0  0  0  0  0  0  0  0  0  0
    5.3881   -2.6374    0.0000 H   0  0  0  0  0  0  0  0  0  0  0  0
    2.5822   -2.6374    0.0000 H   0  0  0  0  0  0  0  0  0  0  0  0
    5.3881   -1.0174    0.0000 H   0  0  0  0  0  0  0  0  0  0  0  0
    2.5822   -1.0174    0.0000 H   0  0  0  0  0  0  0  0  0  0  0  0
    3.4482    0.4825    0.0000 H   0  0  0  0  0  0  0  0  0  0  0  0
    6.2498    2.0687    0.0000 H   0  0  0  0  0  0  0  0  0  0  0  0
    5.7156    3.7130    0.0000 H   0  0  0  0  0  0  0  0  0  0  0  0
    4.7867    4.9988    0.0000 H   0  0  0  0  0  0  0  0  0  0  0  0
    2.5167    3.3495    0.0000 H   0  0  0  0  0  0  0  0  0  0  0  0
    3.8345    6.3094    0.0000 H   0  0  0  0  0  0  0  0  0  0  0  0
    1.5644    4.6601    0.0000 H   0  0  0  0  0  0  0  0  0  0  0  0
  1 27  1  0  0  0  0
  2 18  1  0  0  0  0
  2 19  1  0  0  0  0
  3 17  2  0  0  0  0
  4  7  1  0  0  0  0
  4  8  1  0  0  0  0
  4 11  1  0  0  0  0
  5  9  1  0  0  0  0
  5 10  1  0  0  0  0
  5 36  1  0  0  0  0
  6 14  1  0  0  0  0
  6 17  1  0  0  0  0
  6 41  1  0  0  0  0
  7  9  1  0  0  0  0
  7 28  1  0  0  0  0
  7 29  1  0  0  0  0
  8 10  1  0  0  0  0
  8 30  1  0  0  0  0
  8 31  1  0  0  0  0
  9 32  1  0  0  0  0
  9 33  1  0  0  0  0
 10 34  1  0  0  0  0
 10 35  1  0  0  0  0
 11 12  2  0  0  0  0
 11 13  1  0  0  0  0
 12 15  1  0  0  0  0
 12 37  1  0  0  0  0
 13 16  2  0  0  0  0
 13 38  1  0  0  0  0
 14 15  2  0  0  0  0
 14 16  1  0  0  0  0
 15 39  1  0  0  0  0
 16 40  1  0  0  0  0
 17 18  1  0  0  0  0
 18 21  2  0  0  0  0
 19 20  1  0  0  0  0
 19 22  2  0  0  0  0
 20 23  2  0  0  0  0
 20 24  1  0  0  0  0
 21 22  1  0  0  0  0
 21 42  1  0  0  0  0
 22 43  1  0  0  0  0
 23 25  1  0  0  0  0
 23 44  1  0  0  0  0
 24 26  2  0  0  0  0
 24 45  1  0  0  0  0
 25 27  2  0  0  0  0
 25 46  1  0  0  0  0
 26 27  1  0  0  0  0
 26 47  1  0  0  0  0
M  END
> <PUBCHEM_COMPOUND_CID>
57401151

> <PUBCHEM_COMPOUND_CANONICALIZED>
1

> <PUBCHEM_CACTVS_COMPLEXITY>
484

> <PUBCHEM_CACTVS_HBOND_ACCEPTOR>
4

> <PUBCHEM_CACTVS_HBOND_DONOR>
2

> <PUBCHEM_CACTVS_ROTATABLE_BOND>
4

> <PUBCHEM_CACTVS_SUBSKEYS>
AAADceB7MAAEAAAAAAAAAAAAAAAAASAAAAA8YIAAAAAAAAAB0AAAHgIQAAAADA7BmCQwxIPABECIAqVSUAKCCAAlJwAIiIHObsgOZjLFt7+XOSjk1BHY6YeY3/LuBACAAAAAAAAIAQAAAAAAAAAAAAAAAA==

> <PUBCHEM_IUPAC_OPENEYE_NAME>
5-(4-chlorophenyl)-N-(4-piperazin-1-ylphenyl)furan-2-carboxamide

> <PUBCHEM_IUPAC_CAS_NAME>
5-(4-chlorophenyl)-N-[4-(1-piperazinyl)phenyl]-2-furancarboxamide

> <PUBCHEM_IUPAC_NAME_MARKUP>
5-(4-chlorophenyl)-<I>N</I>-(4-piperazin-1-ylphenyl)furan-2-carboxamide

> <PUBCHEM_IUPAC_NAME>
5-(4-chlorophenyl)-N-(4-piperazin-1-ylphenyl)furan-2-carboxamide

> <PUBCHEM_IUPAC_SYSTEMATIC_NAME>
5-(4-chlorophenyl)-N-(4-piperazin-1-ylphenyl)furan-2-carboxamide

> <PUBCHEM_IUPAC_TRADITIONAL_NAME>
5-(4-chlorophenyl)-N-(4-piperazinophenyl)-2-furamide

> <PUBCHEM_IUPAC_INCHI>
InChI=1S/C21H20ClN3O2/c22-16-3-1-15(2-4-16)19-9-10-20(27-19)21(26)24-17-5-7-18(8-6-17)25-13-11-23-12-14-25/h1-10,23H,11-14H2,(H,24,26)

> <PUBCHEM_IUPAC_INCHIKEY>
CAIGVNVLJGDZSF-UHFFFAOYSA-N

> <PUBCHEM_XLOGP3_AA>
3.9

> <PUBCHEM_EXACT_MASS>
381.1244046

> <PUBCHEM_MOLECULAR_FORMULA>
C21H20ClN3O2

> <PUBCHEM_MOLECULAR_WEIGHT>
381.9

> <PUBCHEM_SMILES>
C1CN(CCN1)C2=CC=C(C=C2)NC(=O)C3=CC=C(O3)C4=CC=C(C=C4)Cl

> <PUBCHEM_OPENEYE_CAN_SMILES>
C1CN(CCN1)C2=CC=C(C=C2)NC(=O)C3=CC=C(O3)C4=CC=C(C=C4)Cl

> <PUBCHEM_OPENEYE_ISO_SMILES>
C1CN(CCN1)C2=CC=C(C=C2)NC(=O)C3=CC=C(O3)C4=CC=C(C=C4)Cl

> <PUBCHEM_CACTVS_TPSA>
57.5

> <PUBCHEM_MONOISOTOPIC_WEIGHT>
381.1244046

> <PUBCHEM_TOTAL_CHARGE>
0

> <PUBCHEM_HEAVY_ATOM_COUNT>
27

> <PUBCHEM_ATOM_DEF_STEREO_COUNT>
0

> <PUBCHEM_ATOM_UDEF_STEREO_COUNT>
0

> <PUBCHEM_BOND_DEF_STEREO_COUNT>
0

> <PUBCHEM_BOND_UDEF_STEREO_COUNT>
0

> <PUBCHEM_ISOTOPIC_ATOM_COUNT>
0

> <PUBCHEM_COMPONENT_COUNT>
1

> <PUBCHEM_CACTVS_TAUTO_COUNT>
-1

> <PUBCHEM_COORDINATE_TYPE>
1
5
255

> <PUBCHEM_BONDANNOTATIONS>
11  12  8
11  13  8
12  15  8
13  16  8
14  15  8
14  16  8
18  21  8
19  22  8
2  18  8
2  19  8
20  23  8
20  24  8
21  22  8
23  25  8
24  26  8
25  27  8
26  27  8

$$$$
