10907042
  -OEChem-03192523152D

 63 67  0     0  0  0  0  0  0999 V2000
    5.4400   -0.7423    0.0000 O   0  0  0  0  0  0  0  0  0  0  0  0
    2.8660    3.7820    0.0000 O   0  0  0  0  0  0  0  0  0  0  0  0
    2.8660    5.7820    0.0000 O   0  0  0  0  0  0  0  0  0  0  0  0
    7.1257   -4.7621    0.0000 O   0  0  0  0  0  0  0  0  0  0  0  0
    6.3465    2.7474    0.0000 N   0  0  0  0  0  0  0  0  0  0  0  0
    6.3233    0.7475    0.0000 N   0  0  0  0  0  0  0  0  0  0  0  0
    7.2641    4.2612    0.0000 N   0  0  0  0  0  0  0  0  0  0  0  0
    7.1720   -0.7624    0.0000 N   0  0  0  0  0  0  0  0  0  0  0  0
    6.3580    5.8167    0.0000 N   0  0  0  0  0  0  0  0  0  0  0  0
    7.2067    2.2374    0.0000 C   0  0  0  0  0  0  0  0  0  0  0  0
    5.4747    2.2574    0.0000 C   0  0  0  0  0  0  0  0  0  0  0  0
    7.1951    1.2375    0.0000 C   0  0  0  0  0  0  0  0  0  0  0  0
    5.4632    1.2575    0.0000 C   0  0  0  0  0  0  0  0  0  0  0  0
    6.3580    3.7473    0.0000 C   0  0  0  0  0  0  0  0  0  0  0  0
    6.3118   -0.2524    0.0000 C   0  0  0  0  0  0  0  0  0  0  0  0
    5.4641    4.2820    0.0000 C   0  0  0  0  0  0  0  0  0  0  0  0
    5.4641    5.2820    0.0000 C   0  0  0  0  0  0  0  0  0  0  0  0
    4.5981    3.7820    0.0000 C   0  0  0  0  0  0  0  0  0  0  0  0
    4.5981    5.7820    0.0000 C   0  0  0  0  0  0  0  0  0  0  0  0
    3.7320    4.2820    0.0000 C   0  0  0  0  0  0  0  0  0  0  0  0
    7.2641    5.3028    0.0000 C   0  0  0  0  0  0  0  0  0  0  0  0
    3.7320    5.2820    0.0000 C   0  0  0  0  0  0  0  0  0  0  0  0
    7.1604   -1.7623    0.0000 C   0  0  0  0  0  0  0  0  0  0  0  0
    6.2887   -2.2523    0.0000 C   0  0  0  0  0  0  0  0  0  0  0  0
    8.0206   -2.2723    0.0000 C   0  0  0  0  0  0  0  0  0  0  0  0
    6.2771   -3.2522    0.0000 C   0  0  0  0  0  0  0  0  0  0  0  0
    8.0090   -3.2722    0.0000 C   0  0  0  0  0  0  0  0  0  0  0  0
    7.1373   -3.7622    0.0000 C   0  0  0  0  0  0  0  0  0  0  0  0
    2.0000    4.2820    0.0000 C   0  0  0  0  0  0  0  0  0  0  0  0
    2.8660    6.7820    0.0000 C   0  0  0  0  0  0  0  0  0  0  0  0
    7.9859   -5.2721    0.0000 C   0  0  0  0  0  0  0  0  0  0  0  0
    7.9744   -6.2720    0.0000 C   0  0  0  0  0  0  0  0  0  0  0  0
    8.8577   -4.7821    0.0000 C   0  0  0  0  0  0  0  0  0  0  0  0
    8.8345   -6.7820    0.0000 C   0  0  0  0  0  0  0  0  0  0  0  0
    9.7178   -5.2921    0.0000 C   0  0  0  0  0  0  0  0  0  0  0  0
    9.7063   -6.2920    0.0000 C   0  0  0  0  0  0  0  0  0  0  0  0
    7.8160    2.1227    0.0000 H   0  0  0  0  0  0  0  0  0  0  0  0
    7.4254    2.8175    0.0000 H   0  0  0  0  0  0  0  0  0  0  0  0
    5.2694    2.8425    0.0000 H   0  0  0  0  0  0  0  0  0  0  0  0
    4.8630    2.1569    0.0000 H   0  0  0  0  0  0  0  0  0  0  0  0
    7.4004    0.6525    0.0000 H   0  0  0  0  0  0  0  0  0  0  0  0
    7.8069    1.3381    0.0000 H   0  0  0  0  0  0  0  0  0  0  0  0
    4.8539    1.3722    0.0000 H   0  0  0  0  0  0  0  0  0  0  0  0
    5.2444    0.6774    0.0000 H   0  0  0  0  0  0  0  0  0  0  0  0
    4.5981    3.1620    0.0000 H   0  0  0  0  0  0  0  0  0  0  0  0
    7.7125   -0.4586    0.0000 H   0  0  0  0  0  0  0  0  0  0  0  0
    4.5981    6.4020    0.0000 H   0  0  0  0  0  0  0  0  0  0  0  0
    7.7998    5.6149    0.0000 H   0  0  0  0  0  0  0  0  0  0  0  0
    5.7554   -1.9361    0.0000 H   0  0  0  0  0  0  0  0  0  0  0  0
    8.5611   -1.9685    0.0000 H   0  0  0  0  0  0  0  0  0  0  0  0
    5.7366   -3.5560    0.0000 H   0  0  0  0  0  0  0  0  0  0  0  0
    8.5424   -3.5884    0.0000 H   0  0  0  0  0  0  0  0  0  0  0  0
    2.3100    4.8189    0.0000 H   0  0  0  0  0  0  0  0  0  0  0  0
    1.4631    4.5920    0.0000 H   0  0  0  0  0  0  0  0  0  0  0  0
    1.6900    3.7451    0.0000 H   0  0  0  0  0  0  0  0  0  0  0  0
    3.4860    6.7820    0.0000 H   0  0  0  0  0  0  0  0  0  0  0  0
    2.8660    7.4020    0.0000 H   0  0  0  0  0  0  0  0  0  0  0  0
    2.2460    6.7820    0.0000 H   0  0  0  0  0  0  0  0  0  0  0  0
    7.4339   -6.5758    0.0000 H   0  0  0  0  0  0  0  0  0  0  0  0
    8.8648   -4.1622    0.0000 H   0  0  0  0  0  0  0  0  0  0  0  0
    8.8274   -7.4020    0.0000 H   0  0  0  0  0  0  0  0  0  0  0  0
   10.2583   -4.9883    0.0000 H   0  0  0  0  0  0  0  0  0  0  0  0
   10.2396   -6.6082    0.0000 H   0  0  0  0  0  0  0  0  0  0  0  0
  1 15  2  0  0  0  0
  2 20  1  0  0  0  0
  2 29  1  0  0  0  0
  3 22  1  0  0  0  0
  3 30  1  0  0  0  0
  4 28  1  0  0  0  0
  4 31  1  0  0  0  0
  5 10  1  0  0  0  0
  5 11  1  0  0  0  0
  5 14  1  0  0  0  0
  6 12  1  0  0  0  0
  6 13  1  0  0  0  0
  6 15  1  0  0  0  0
  7 14  2  0  0  0  0
  7 21  1  0  0  0  0
  8 15  1  0  0  0  0
  8 23  1  0  0  0  0
  8 46  1  0  0  0  0
  9 17  1  0  0  0  0
  9 21  2  0  0  0  0
 10 12  1  0  0  0  0
 10 37  1  0  0  0  0
 10 38  1  0  0  0  0
 11 13  1  0  0  0  0
 11 39  1  0  0  0  0
 11 40  1  0  0  0  0
 12 41  1  0  0  0  0
 12 42  1  0  0  0  0
 13 43  1  0  0  0  0
 13 44  1  0  0  0  0
 14 16  1  0  0  0  0
 16 17  1  0  0  0  0
 16 18  2  0  0  0  0
 17 19  2  0  0  0  0
 18 20  1  0  0  0  0
 18 45  1  0  0  0  0
 19 22  1  0  0  0  0
 19 47  1  0  0  0  0
 20 22  2  0  0  0  0
 21 48  1  0  0  0  0
 23 24  2  0  0  0  0
 23 25  1  0  0  0  0
 24 26  1  0  0  0  0
 24 49  1  0  0  0  0
 25 27  2  0  0  0  0
 25 50  1  0  0  0  0
 26 28  2  0  0  0  0
 26 51  1  0  0  0  0
 27 28  1  0  0  0  0
 27 52  1  0  0  0  0
 29 53  1  0  0  0  0
 29 54  1  0  0  0  0
 29 55  1  0  0  0  0
 30 56  1  0  0  0  0
 30 57  1  0  0  0  0
 30 58  1  0  0  0  0
 31 32  2  0  0  0  0
 31 33  1  0  0  0  0
 32 34  1  0  0  0  0
 32 59  1  0  0  0  0
 33 35  2  0  0  0  0
 33 60  1  0  0  0  0
 34 36  2  0  0  0  0
 34 61  1  0  0  0  0
 35 36  1  0  0  0  0
 35 62  1  0  0  0  0
 36 63  1  0  0  0  0
M  END
> <PUBCHEM_COMPOUND_CID>
10907042

> <PUBCHEM_COMPOUND_CANONICALIZED>
1

> <PUBCHEM_CACTVS_COMPLEXITY>
692

> <PUBCHEM_CACTVS_HBOND_ACCEPTOR>
7

> <PUBCHEM_CACTVS_HBOND_DONOR>
1

> <PUBCHEM_CACTVS_ROTATABLE_BOND>
6

> <PUBCHEM_CACTVS_SUBSKEYS>
AAADceB7uAAAAAAAAAAAAAAAAAAAAAAAAAA8eMECAAAAAACx9AAAHgAQAAAADAzBngY39vfIFACoAyZjdACCiCkxIqAJ2CA+7JiNbqLE+duWPCru1hvK6Cew0BMOIEABAgACQABAgAIEAASAAAAAAAAAAA==

> <PUBCHEM_IUPAC_OPENEYE_NAME>
4-(6,7-dimethoxyquinazolin-4-yl)-N-(4-phenoxyphenyl)piperazine-1-carboxamide

> <PUBCHEM_IUPAC_CAS_NAME>
4-(6,7-dimethoxy-4-quinazolinyl)-N-(4-phenoxyphenyl)-1-piperazinecarboxamide

> <PUBCHEM_IUPAC_NAME_MARKUP>
4-(6,7-dimethoxyquinazolin-4-yl)-<I>N</I>-(4-phenoxyphenyl)piperazine-1-carboxamide

> <PUBCHEM_IUPAC_NAME>
4-(6,7-dimethoxyquinazolin-4-yl)-N-(4-phenoxyphenyl)piperazine-1-carboxamide

> <PUBCHEM_IUPAC_SYSTEMATIC_NAME>
4-(6,7-dimethoxyquinazolin-4-yl)-N-(4-phenoxyphenyl)piperazine-1-carboxamide

> <PUBCHEM_IUPAC_TRADITIONAL_NAME>
4-(6,7-dimethoxyquinazolin-4-yl)-N-(4-phenoxyphenyl)piperazine-1-carboxamide

> <PUBCHEM_IUPAC_INCHI>
InChI=1S/C27H27N5O4/c1-34-24-16-22-23(17-25(24)35-2)28-18-29-26(22)31-12-14-32(15-13-31)27(33)30-19-8-10-21(11-9-19)36-20-6-4-3-5-7-20/h3-11,16-18H,12-15H2,1-2H3,(H,30,33)

> <PUBCHEM_IUPAC_INCHIKEY>
INTPTKHSGKBHHW-UHFFFAOYSA-N

> <PUBCHEM_XLOGP3_AA>
4.1

> <PUBCHEM_EXACT_MASS>
485.20630436

> <PUBCHEM_MOLECULAR_FORMULA>
C27H27N5O4

> <PUBCHEM_MOLECULAR_WEIGHT>
485.5

> <PUBCHEM_SMILES>
COC1=C(C=C2C(=C1)C(=NC=N2)N3CCN(CC3)C(=O)NC4=CC=C(C=C4)OC5=CC=CC=C5)OC

> <PUBCHEM_OPENEYE_CAN_SMILES>
COC1=C(C=C2C(=C1)C(=NC=N2)N3CCN(CC3)C(=O)NC4=CC=C(C=C4)OC5=CC=CC=C5)OC

> <PUBCHEM_OPENEYE_ISO_SMILES>
COC1=C(C=C2C(=C1)C(=NC=N2)N3CCN(CC3)C(=O)NC4=CC=C(C=C4)OC5=CC=CC=C5)OC

> <PUBCHEM_CACTVS_TPSA>
89.1

> <PUBCHEM_MONOISOTOPIC_WEIGHT>
485.20630436

> <PUBCHEM_TOTAL_CHARGE>
0

> <PUBCHEM_HEAVY_ATOM_COUNT>
36

> <PUBCHEM_ATOM_DEF_STEREO_COUNT>
0

> <PUBCHEM_ATOM_UDEF_STEREO_COUNT>
0

> <PUBCHEM_BOND_DEF_STEREO_COUNT>
0

> <PUBCHEM_BOND_UDEF_STEREO_COUNT>
0

> <PUBCHEM_ISOTOPIC_ATOM_COUNT>
0

> <PUBCHEM_COMPONENT_COUNT>
1

> <PUBCHEM_CACTVS_TAUTO_COUNT>
-1

> <PUBCHEM_COORDINATE_TYPE>
1
5
255

> <PUBCHEM_BONDANNOTATIONS>
14  16  8
16  17  8
16  18  8
17  19  8
18  20  8
19  22  8
20  22  8
23  24  8
23  25  8
24  26  8
25  27  8
26  28  8
27  28  8
31  32  8
31  33  8
32  34  8
33  35  8
34  36  8
35  36  8
7  14  8
7  21  8
9  17  8
9  21  8

$$$$
