10390073
  -OEChem-03202504432D

 63 67  0     1  0  0  0  0  0999 V2000
    5.5211    1.2003    0.0000 S   0  0  0  0  0  0  0  0  0  0  0  0
   10.9434   -0.0357    0.0000 F   0  0  0  0  0  0  0  0  0  0  0  0
    4.0668    4.5784    0.0000 N   0  0  0  0  0  0  0  0  0  0  0  0
    6.8301    2.1514    0.0000 N   0  0  0  0  0  0  0  0  0  0  0  0
    4.5981   -2.3874    0.0000 N   0  0  0  0  0  0  0  0  0  0  0  0
    6.3301   -2.3874    0.0000 N   0  0  0  0  0  0  0  0  0  0  0  0
    5.2423    2.9604    0.0000 C   0  0  0  0  0  0  0  0  0  0  0  0
    5.6491    3.8740    0.0000 C   0  0  0  0  0  0  0  0  0  0  0  0
    4.2478    2.8559    0.0000 C   0  0  0  0  0  0  0  0  0  0  0  0
    5.0613    4.6830    0.0000 C   0  0  0  0  0  0  0  0  0  0  0  0
    3.6600    3.6649    0.0000 C   0  0  0  0  0  0  0  0  0  0  0  0
    5.8301    2.1514    0.0000 C   0  0  0  0  0  0  0  0  0  0  0  0
    3.4790    5.3874    0.0000 C   0  0  0  0  0  0  0  0  0  0  0  0
    6.3301    0.6125    0.0000 C   0  0  0  0  0  0  0  0  0  0  0  0
    7.1391    1.2003    0.0000 C   0  0  0  0  0  0  0  0  0  0  0  0
    6.3301   -0.3875    0.0000 C   0  0  0  0  0  0  0  0  0  0  0  0
    8.0902    0.8913    0.0000 C   0  0  0  0  0  0  0  0  0  0  0  0
    5.4641   -0.8875    0.0000 C   0  0  0  0  0  0  0  0  0  0  0  0
    7.1962   -0.8875    0.0000 C   0  0  0  0  0  0  0  0  0  0  0  0
    5.4641   -1.8874    0.0000 C   0  0  0  0  0  0  0  0  0  0  0  0
    8.2981   -0.0868    0.0000 C   0  0  0  0  0  0  0  0  0  0  0  0
    8.8334    1.5604    0.0000 C   0  0  0  0  0  0  0  0  0  0  0  0
    4.5981   -3.3874    0.0000 C   0  0  2  0  0  0  0  0  0  0  0  0
    7.1962   -1.8874    0.0000 C   0  0  0  0  0  0  0  0  0  0  0  0
    3.7320   -3.8874    0.0000 C   0  0  0  0  0  0  0  0  0  0  0  0
    9.2492   -0.3959    0.0000 C   0  0  0  0  0  0  0  0  0  0  0  0
    9.7844    1.2514    0.0000 C   0  0  0  0  0  0  0  0  0  0  0  0
    5.4641   -3.8874    0.0000 C   0  0  0  0  0  0  0  0  0  0  0  0
    9.9923    0.2733    0.0000 C   0  0  0  0  0  0  0  0  0  0  0  0
    3.7320   -4.8874    0.0000 C   0  0  0  0  0  0  0  0  0  0  0  0
    2.8660   -3.3874    0.0000 C   0  0  0  0  0  0  0  0  0  0  0  0
    2.8660   -5.3874    0.0000 C   0  0  0  0  0  0  0  0  0  0  0  0
    2.0000   -3.8874    0.0000 C   0  0  0  0  0  0  0  0  0  0  0  0
    2.0000   -4.8874    0.0000 C   0  0  0  0  0  0  0  0  0  0  0  0
    5.8590    3.0252    0.0000 H   0  0  0  0  0  0  0  0  0  0  0  0
    6.1631    3.5272    0.0000 H   0  0  0  0  0  0  0  0  0  0  0  0
    6.0798    4.3199    0.0000 H   0  0  0  0  0  0  0  0  0  0  0  0
    3.6906    2.5841    0.0000 H   0  0  0  0  0  0  0  0  0  0  0  0
    4.4187    2.2599    0.0000 H   0  0  0  0  0  0  0  0  0  0  0  0
    5.6186    4.9548    0.0000 H   0  0  0  0  0  0  0  0  0  0  0  0
    4.8904    5.2790    0.0000 H   0  0  0  0  0  0  0  0  0  0  0  0
    3.1460    4.0116    0.0000 H   0  0  0  0  0  0  0  0  0  0  0  0
    3.2294    3.2189    0.0000 H   0  0  0  0  0  0  0  0  0  0  0  0
    3.9806    5.7519    0.0000 H   0  0  0  0  0  0  0  0  0  0  0  0
    3.1146    5.8890    0.0000 H   0  0  0  0  0  0  0  0  0  0  0  0
    2.9774    5.0230    0.0000 H   0  0  0  0  0  0  0  0  0  0  0  0
    4.9272   -0.5775    0.0000 H   0  0  0  0  0  0  0  0  0  0  0  0
    7.7331   -0.5775    0.0000 H   0  0  0  0  0  0  0  0  0  0  0  0
    7.8374   -0.5017    0.0000 H   0  0  0  0  0  0  0  0  0  0  0  0
    8.7044    2.1669    0.0000 H   0  0  0  0  0  0  0  0  0  0  0  0
    5.1350   -3.0775    0.0000 H   0  0  0  0  0  0  0  0  0  0  0  0
    4.0611   -2.0774    0.0000 H   0  0  0  0  0  0  0  0  0  0  0  0
    7.7331   -2.1974    0.0000 H   0  0  0  0  0  0  0  0  0  0  0  0
    9.3781   -1.0023    0.0000 H   0  0  0  0  0  0  0  0  0  0  0  0
   10.2452    1.6663    0.0000 H   0  0  0  0  0  0  0  0  0  0  0  0
    5.1541   -4.4244    0.0000 H   0  0  0  0  0  0  0  0  0  0  0  0
    6.0010   -4.1974    0.0000 H   0  0  0  0  0  0  0  0  0  0  0  0
    5.7741   -3.3505    0.0000 H   0  0  0  0  0  0  0  0  0  0  0  0
    4.2690   -5.1974    0.0000 H   0  0  0  0  0  0  0  0  0  0  0  0
    2.8660   -2.7675    0.0000 H   0  0  0  0  0  0  0  0  0  0  0  0
    2.8660   -6.0075    0.0000 H   0  0  0  0  0  0  0  0  0  0  0  0
    1.4631   -3.5775    0.0000 H   0  0  0  0  0  0  0  0  0  0  0  0
    1.4631   -5.1974    0.0000 H   0  0  0  0  0  0  0  0  0  0  0  0
  1 12  1  0  0  0  0
  1 14  1  0  0  0  0
  2 29  1  0  0  0  0
  3 10  1  0  0  0  0
  3 11  1  0  0  0  0
  3 13  1  0  0  0  0
  4 12  2  0  0  0  0
  4 15  1  0  0  0  0
  5 20  1  0  0  0  0
 23  5  1  1  0  0  0
  5 52  1  0  0  0  0
  6 20  2  0  0  0  0
  6 24  1  0  0  0  0
  7  8  1  0  0  0  0
  7  9  1  0  0  0  0
  7 12  1  0  0  0  0
  7 35  1  0  0  0  0
  8 10  1  0  0  0  0
  8 36  1  0  0  0  0
  8 37  1  0  0  0  0
  9 11  1  0  0  0  0
  9 38  1  0  0  0  0
  9 39  1  0  0  0  0
 10 40  1  0  0  0  0
 10 41  1  0  0  0  0
 11 42  1  0  0  0  0
 11 43  1  0  0  0  0
 13 44  1  0  0  0  0
 13 45  1  0  0  0  0
 13 46  1  0  0  0  0
 14 15  2  0  0  0  0
 14 16  1  0  0  0  0
 15 17  1  0  0  0  0
 16 18  2  0  0  0  0
 16 19  1  0  0  0  0
 17 21  2  0  0  0  0
 17 22  1  0  0  0  0
 18 20  1  0  0  0  0
 18 47  1  0  0  0  0
 19 24  2  0  0  0  0
 19 48  1  0  0  0  0
 21 26  1  0  0  0  0
 21 49  1  0  0  0  0
 22 27  2  0  0  0  0
 22 50  1  0  0  0  0
 23 25  1  0  0  0  0
 23 28  1  0  0  0  0
 23 51  1  0  0  0  0
 24 53  1  0  0  0  0
 25 30  2  0  0  0  0
 25 31  1  0  0  0  0
 26 29  2  0  0  0  0
 26 54  1  0  0  0  0
 27 29  1  0  0  0  0
 27 55  1  0  0  0  0
 28 56  1  0  0  0  0
 28 57  1  0  0  0  0
 28 58  1  0  0  0  0
 30 32  1  0  0  0  0
 30 59  1  0  0  0  0
 31 33  2  0  0  0  0
 31 60  1  0  0  0  0
 32 34  2  0  0  0  0
 32 61  1  0  0  0  0
 33 34  1  0  0  0  0
 33 62  1  0  0  0  0
 34 63  1  0  0  0  0
M  END
> <PUBCHEM_COMPOUND_CID>
10390073

> <PUBCHEM_COMPOUND_CANONICALIZED>
1

> <PUBCHEM_CACTVS_COMPLEXITY>
616

> <PUBCHEM_CACTVS_HBOND_ACCEPTOR>
6

> <PUBCHEM_CACTVS_HBOND_DONOR>
1

> <PUBCHEM_CACTVS_ROTATABLE_BOND>
6

> <PUBCHEM_CACTVS_SUBSKEYS>
AAADceB7gQBAAAAAAAAAAAAAAAAAAWAAAAA8eIEAAAAAAAAB9AAAHQQQAAAADSjBXgw/sZPIEAikAzZnZACC8KlxCjgJ2LQ4ZJiIIOLgmZGEIAhokALoyCcQgMAOAAAAAAAAAAAAAAAAAAAAAAAAAAAAAA==

> <PUBCHEM_IUPAC_OPENEYE_NAME>
4-[4-(4-fluorophenyl)-2-(1-methyl-4-piperidyl)thiazol-5-yl]-N-[(1S)-1-phenylethyl]pyridin-2-amine

> <PUBCHEM_IUPAC_CAS_NAME>
4-[4-(4-fluorophenyl)-2-(1-methyl-4-piperidinyl)-5-thiazolyl]-N-[(1S)-1-phenylethyl]-2-pyridinamine

> <PUBCHEM_IUPAC_NAME_MARKUP>
4-[4-(4-fluorophenyl)-2-(1-methylpiperidin-4-yl)-1,3-thiazol-5-yl]-<I>N</I>-[(1<I>S</I>)-1-phenylethyl]pyridin-2-amine

> <PUBCHEM_IUPAC_NAME>
4-[4-(4-fluorophenyl)-2-(1-methylpiperidin-4-yl)-1,3-thiazol-5-yl]-N-[(1S)-1-phenylethyl]pyridin-2-amine

> <PUBCHEM_IUPAC_SYSTEMATIC_NAME>
4-[4-(4-fluorophenyl)-2-(1-methylpiperidin-4-yl)-1,3-thiazol-5-yl]-N-[(1S)-1-phenylethyl]pyridin-2-amine

> <PUBCHEM_IUPAC_TRADITIONAL_NAME>
[4-[4-(4-fluorophenyl)-2-(1-methyl-4-piperidyl)thiazol-5-yl]-2-pyridyl]-[(1S)-1-phenylethyl]amine

> <PUBCHEM_IUPAC_INCHI>
InChI=1S/C28H29FN4S/c1-19(20-6-4-3-5-7-20)31-25-18-23(12-15-30-25)27-26(21-8-10-24(29)11-9-21)32-28(34-27)22-13-16-33(2)17-14-22/h3-12,15,18-19,22H,13-14,16-17H2,1-2H3,(H,30,31)/t19-/m0/s1

> <PUBCHEM_IUPAC_INCHIKEY>
HJEPFPDXSFKWQH-IBGZPJMESA-N

> <PUBCHEM_XLOGP3_AA>
6.1

> <PUBCHEM_EXACT_MASS>
472.20969628

> <PUBCHEM_MOLECULAR_FORMULA>
C28H29FN4S

> <PUBCHEM_MOLECULAR_WEIGHT>
472.6

> <PUBCHEM_SMILES>
C[C@@H](C1=CC=CC=C1)NC2=NC=CC(=C2)C3=C(N=C(S3)C4CCN(CC4)C)C5=CC=C(C=C5)F

> <PUBCHEM_OPENEYE_CAN_SMILES>
CC(C1=CC=CC=C1)NC2=NC=CC(=C2)C3=C(N=C(S3)C4CCN(CC4)C)C5=CC=C(C=C5)F

> <PUBCHEM_OPENEYE_ISO_SMILES>
C[C@@H](C1=CC=CC=C1)NC2=NC=CC(=C2)C3=C(N=C(S3)C4CCN(CC4)C)C5=CC=C(C=C5)F

> <PUBCHEM_CACTVS_TPSA>
69.3

> <PUBCHEM_MONOISOTOPIC_WEIGHT>
472.20969628

> <PUBCHEM_TOTAL_CHARGE>
0

> <PUBCHEM_HEAVY_ATOM_COUNT>
34

> <PUBCHEM_ATOM_DEF_STEREO_COUNT>
1

> <PUBCHEM_ATOM_UDEF_STEREO_COUNT>
0

> <PUBCHEM_BOND_DEF_STEREO_COUNT>
0

> <PUBCHEM_BOND_UDEF_STEREO_COUNT>
0

> <PUBCHEM_ISOTOPIC_ATOM_COUNT>
0

> <PUBCHEM_COMPONENT_COUNT>
1

> <PUBCHEM_CACTVS_TAUTO_COUNT>
-1

> <PUBCHEM_COORDINATE_TYPE>
1
5
255

> <PUBCHEM_BONDANNOTATIONS>
1  12  8
1  14  8
14  15  8
16  18  8
16  19  8
17  21  8
17  22  8
18  20  8
19  24  8
21  26  8
22  27  8
25  30  8
25  31  8
26  29  8
27  29  8
30  32  8
31  33  8
32  34  8
33  34  8
4  12  8
4  15  8
23  5  5
6  20  8
6  24  8

$$$$
