49830286
  -OEChem-03202503142D

 37 39  0     0  0  0  0  0  0999 V2000
    3.4030    2.3870    0.0000 O   0  0  0  0  0  0  0  0  0  0  0  0
    2.5369    0.8870    0.0000 O   0  0  0  0  0  0  0  0  0  0  0  0
    5.1350    0.3870    0.0000 N   0  0  0  0  0  0  0  0  0  0  0  0
    6.9473   -2.4177    0.0000 N   0  0  0  0  0  0  0  0  0  0  0  0
    4.2690   -1.1130    0.0000 N   0  0  0  0  0  0  0  0  0  0  0  0
    5.1350   -2.6130    0.0000 N   0  0  0  0  0  0  0  0  0  0  0  0
    4.2690    0.8870    0.0000 C   0  0  0  0  0  0  0  0  0  0  0  0
    6.0010   -1.1130    0.0000 C   0  0  0  0  0  0  0  0  0  0  0  0
    6.9473   -0.8082    0.0000 C   0  0  0  0  0  0  0  0  0  0  0  0
    5.1350   -0.6130    0.0000 C   0  0  0  0  0  0  0  0  0  0  0  0
    6.0010   -2.1130    0.0000 C   0  0  0  0  0  0  0  0  0  0  0  0
    4.2690    1.8870    0.0000 C   0  0  0  0  0  0  0  0  0  0  0  0
    3.4030    0.3870    0.0000 C   0  0  0  0  0  0  0  0  0  0  0  0
    7.5309   -1.6130    0.0000 C   0  0  0  0  0  0  0  0  0  0  0  0
    7.2579    0.1423    0.0000 C   0  0  0  0  0  0  0  0  0  0  0  0
    8.2364    0.3485    0.0000 C   0  0  0  0  0  0  0  0  0  0  0  0
    6.5901    0.8866    0.0000 C   0  0  0  0  0  0  0  0  0  0  0  0
    4.2690   -2.1130    0.0000 C   0  0  0  0  0  0  0  0  0  0  0  0
    8.5471    1.2990    0.0000 C   0  0  0  0  0  0  0  0  0  0  0  0
    6.9007    1.8371    0.0000 C   0  0  0  0  0  0  0  0  0  0  0  0
    7.8792    2.0433    0.0000 C   0  0  0  0  0  0  0  0  0  0  0  0
    4.2690    0.2670    0.0000 H   0  0  0  0  0  0  0  0  0  0  0  0
    5.6720    0.6970    0.0000 H   0  0  0  0  0  0  0  0  0  0  0  0
    4.8796    1.7794    0.0000 H   0  0  0  0  0  0  0  0  0  0  0  0
    4.4810    2.4696    0.0000 H   0  0  0  0  0  0  0  0  0  0  0  0
    3.0044   -0.0879    0.0000 H   0  0  0  0  0  0  0  0  0  0  0  0
    3.8015   -0.0879    0.0000 H   0  0  0  0  0  0  0  0  0  0  0  0
    8.1509   -1.6130    0.0000 H   0  0  0  0  0  0  0  0  0  0  0  0
    7.1399   -3.0070    0.0000 H   0  0  0  0  0  0  0  0  0  0  0  0
    8.6505   -0.1130    0.0000 H   0  0  0  0  0  0  0  0  0  0  0  0
    5.9834    0.7587    0.0000 H   0  0  0  0  0  0  0  0  0  0  0  0
    3.7320   -2.4230    0.0000 H   0  0  0  0  0  0  0  0  0  0  0  0
    9.1538    1.4269    0.0000 H   0  0  0  0  0  0  0  0  0  0  0  0
    6.4867    2.2986    0.0000 H   0  0  0  0  0  0  0  0  0  0  0  0
    3.4030    3.0070    0.0000 H   0  0  0  0  0  0  0  0  0  0  0  0
    2.0000    0.5770    0.0000 H   0  0  0  0  0  0  0  0  0  0  0  0
    8.0718    2.6326    0.0000 H   0  0  0  0  0  0  0  0  0  0  0  0
  1 12  1  0  0  0  0
  1 35  1  0  0  0  0
  2 13  1  0  0  0  0
  2 36  1  0  0  0  0
  3  7  1  0  0  0  0
  3 10  1  0  0  0  0
  3 23  1  0  0  0  0
  4 11  1  0  0  0  0
  4 14  1  0  0  0  0
  4 29  1  0  0  0  0
  5 10  2  0  0  0  0
  5 18  1  0  0  0  0
  6 11  1  0  0  0  0
  6 18  2  0  0  0  0
  7 12  1  0  0  0  0
  7 13  1  0  0  0  0
  7 22  1  0  0  0  0
  8  9  1  0  0  0  0
  8 10  1  0  0  0  0
  8 11  2  0  0  0  0
  9 14  2  0  0  0  0
  9 15  1  0  0  0  0
 12 24  1  0  0  0  0
 12 25  1  0  0  0  0
 13 26  1  0  0  0  0
 13 27  1  0  0  0  0
 14 28  1  0  0  0  0
 15 16  2  0  0  0  0
 15 17  1  0  0  0  0
 16 19  1  0  0  0  0
 16 30  1  0  0  0  0
 17 20  2  0  0  0  0
 17 31  1  0  0  0  0
 18 32  1  0  0  0  0
 19 21  2  0  0  0  0
 19 33  1  0  0  0  0
 20 21  1  0  0  0  0
 20 34  1  0  0  0  0
 21 37  1  0  0  0  0
M  END
> <PUBCHEM_COMPOUND_CID>
49830286

> <PUBCHEM_COMPOUND_CANONICALIZED>
1

> <PUBCHEM_CACTVS_COMPLEXITY>
321

> <PUBCHEM_CACTVS_HBOND_ACCEPTOR>
5

> <PUBCHEM_CACTVS_HBOND_DONOR>
4

> <PUBCHEM_CACTVS_ROTATABLE_BOND>
5

> <PUBCHEM_CACTVS_SUBSKEYS>
AAADceBzsAAAAAAAAAAAAAAAAAAAAWAAAAA8QAAAAAAAAFgB/AAAHgAQCAAADCjhmwY9sN7JkgCgAjJnZACCgCmxAKAJ2aAoRJiKOGLA2dGEZAhpkALYyCcQgMAOgAAAAAAAAAAAAAAAAAAAAAAAAAAAAA==

> <PUBCHEM_IUPAC_OPENEYE_NAME>
2-[(5-phenyl-7H-pyrrolo[2,3-d]pyrimidin-4-yl)amino]propane-1,3-diol

> <PUBCHEM_IUPAC_CAS_NAME>
2-[(5-phenyl-7H-pyrrolo[2,3-d]pyrimidin-4-yl)amino]propane-1,3-diol

> <PUBCHEM_IUPAC_NAME_MARKUP>
2-[(5-phenyl-7<I>H</I>-pyrrolo[2,3-d]pyrimidin-4-yl)amino]propane-1,3-diol

> <PUBCHEM_IUPAC_NAME>
2-[(5-phenyl-7H-pyrrolo[2,3-d]pyrimidin-4-yl)amino]propane-1,3-diol

> <PUBCHEM_IUPAC_SYSTEMATIC_NAME>
2-[(5-phenyl-7H-pyrrolo[2,3-d]pyrimidin-4-yl)amino]propane-1,3-diol

> <PUBCHEM_IUPAC_TRADITIONAL_NAME>
2-[(5-phenyl-7H-pyrrolo[2,3-d]pyrimidin-4-yl)amino]propane-1,3-diol

> <PUBCHEM_IUPAC_INCHI>
InChI=1S/C15H16N4O2/c20-7-11(8-21)19-15-13-12(10-4-2-1-3-5-10)6-16-14(13)17-9-18-15/h1-6,9,11,20-21H,7-8H2,(H2,16,17,18,19)

> <PUBCHEM_IUPAC_INCHIKEY>
PSCJSWRVCKUMSL-UHFFFAOYSA-N

> <PUBCHEM_XLOGP3_AA>
1.3

> <PUBCHEM_EXACT_MASS>
284.12732577

> <PUBCHEM_MOLECULAR_FORMULA>
C15H16N4O2

> <PUBCHEM_MOLECULAR_WEIGHT>
284.31

> <PUBCHEM_SMILES>
C1=CC=C(C=C1)C2=CNC3=C2C(=NC=N3)NC(CO)CO

> <PUBCHEM_OPENEYE_CAN_SMILES>
C1=CC=C(C=C1)C2=CNC3=C2C(=NC=N3)NC(CO)CO

> <PUBCHEM_OPENEYE_ISO_SMILES>
C1=CC=C(C=C1)C2=CNC3=C2C(=NC=N3)NC(CO)CO

> <PUBCHEM_CACTVS_TPSA>
94.1

> <PUBCHEM_MONOISOTOPIC_WEIGHT>
284.12732577

> <PUBCHEM_TOTAL_CHARGE>
0

> <PUBCHEM_HEAVY_ATOM_COUNT>
21

> <PUBCHEM_ATOM_DEF_STEREO_COUNT>
0

> <PUBCHEM_ATOM_UDEF_STEREO_COUNT>
0

> <PUBCHEM_BOND_DEF_STEREO_COUNT>
0

> <PUBCHEM_BOND_UDEF_STEREO_COUNT>
0

> <PUBCHEM_ISOTOPIC_ATOM_COUNT>
0

> <PUBCHEM_COMPONENT_COUNT>
1

> <PUBCHEM_CACTVS_TAUTO_COUNT>
-1

> <PUBCHEM_COORDINATE_TYPE>
1
5
255

> <PUBCHEM_BONDANNOTATIONS>
15  16  8
15  17  8
16  19  8
17  20  8
19  21  8
20  21  8
4  11  8
4  14  8
5  10  8
5  18  8
6  11  8
6  18  8
8  10  8
8  11  8
8  9  8
9  14  8

$$$$
