24883287
  -OEChem-03202507032D

 61 64  0     1  0  0  0  0  0999 V2000
   10.4924   -4.5272    0.0000 Cl  0  0  0  0  0  0  0  0  0  0  0  0
    8.7720   -3.5072    0.0000 F   0  0  0  0  0  0  0  0  0  0  0  0
    4.4487    1.0272    0.0000 O   0  0  0  0  0  0  0  0  0  0  0  0
    5.1724   -1.8274    0.0000 O   0  0  0  0  0  0  0  0  0  0  0  0
    5.3147    1.5272    0.0000 O   0  0  0  0  0  0  0  0  0  0  0  0
    4.4487    4.0272    0.0000 O   0  0  0  0  0  0  0  0  0  0  0  0
    3.4782   -1.4673    0.0000 N   0  0  0  0  0  0  0  0  0  0  0  0
    5.3147   -0.4728    0.0000 N   0  0  0  0  0  0  0  0  0  0  0  0
    8.8067    1.5619    0.0000 N   0  0  0  0  0  0  0  0  0  0  0  0
    8.7952   -1.5074    0.0000 N   0  0  0  0  0  0  0  0  0  0  0  0
    9.7128    0.0064    0.0000 N   0  0  0  0  0  0  0  0  0  0  0  0
    3.5827   -0.4728    0.0000 C   0  0  1  0  0  0  0  0  0  0  0  0
    2.6691   -0.0661    0.0000 C   0  0  0  0  0  0  0  0  0  0  0  0
    2.0000   -0.8092    0.0000 C   0  0  0  0  0  0  0  0  0  0  0  0
    2.5000   -1.6752    0.0000 C   0  0  0  0  0  0  0  0  0  0  0  0
    4.4487    0.0272    0.0000 C   0  0  0  0  0  0  0  0  0  0  0  0
    4.2213   -2.1364    0.0000 C   0  0  0  0  0  0  0  0  0  0  0  0
    6.1808    0.0272    0.0000 C   0  0  0  0  0  0  0  0  0  0  0  0
    4.0134   -3.1146    0.0000 C   0  0  0  0  0  0  0  0  0  0  0  0
    6.1808    1.0272    0.0000 C   0  0  0  0  0  0  0  0  0  0  0  0
    7.0468   -0.4728    0.0000 C   0  0  0  0  0  0  0  0  0  0  0  0
    7.9128    0.0272    0.0000 C   0  0  0  0  0  0  0  0  0  0  0  0
    7.0468    1.5272    0.0000 C   0  0  0  0  0  0  0  0  0  0  0  0
    7.9128    1.0272    0.0000 C   0  0  0  0  0  0  0  0  0  0  0  0
    3.0623   -3.4236    0.0000 C   0  0  0  0  0  0  0  0  0  0  0  0
    8.8067   -0.5074    0.0000 C   0  0  0  0  0  0  0  0  0  0  0  0
    5.3147    2.5272    0.0000 C   0  0  0  0  0  0  0  0  0  0  0  0
    9.7128    1.0480    0.0000 C   0  0  0  0  0  0  0  0  0  0  0  0
    4.4487    3.0272    0.0000 C   0  0  0  0  0  0  0  0  0  0  0  0
    9.6554   -2.0174    0.0000 C   0  0  0  0  0  0  0  0  0  0  0  0
    9.6438   -3.0173    0.0000 C   0  0  0  0  0  0  0  0  0  0  0  0
   10.5271   -1.5274    0.0000 C   0  0  0  0  0  0  0  0  0  0  0  0
   10.5040   -3.5273    0.0000 C   0  0  0  0  0  0  0  0  0  0  0  0
   11.3873   -2.0374    0.0000 C   0  0  0  0  0  0  0  0  0  0  0  0
   11.3757   -3.0373    0.0000 C   0  0  0  0  0  0  0  0  0  0  0  0
    3.5827    4.5272    0.0000 C   0  0  0  0  0  0  0  0  0  0  0  0
    4.1026   -0.8105    0.0000 H   0  0  0  0  0  0  0  0  0  0  0  0
    2.9791    0.4709    0.0000 H   0  0  0  0  0  0  0  0  0  0  0  0
    2.1675    0.2984    0.0000 H   0  0  0  0  0  0  0  0  0  0  0  0
    1.5851   -0.3484    0.0000 H   0  0  0  0  0  0  0  0  0  0  0  0
    1.4984   -1.1736    0.0000 H   0  0  0  0  0  0  0  0  0  0  0  0
    1.9336   -1.9274    0.0000 H   0  0  0  0  0  0  0  0  0  0  0  0
    2.6916   -2.2649    0.0000 H   0  0  0  0  0  0  0  0  0  0  0  0
    5.3147   -1.0928    0.0000 H   0  0  0  0  0  0  0  0  0  0  0  0
    4.4741   -3.5294    0.0000 H   0  0  0  0  0  0  0  0  0  0  0  0
    7.0468   -1.0928    0.0000 H   0  0  0  0  0  0  0  0  0  0  0  0
    7.0468    2.1472    0.0000 H   0  0  0  0  0  0  0  0  0  0  0  0
    2.6016   -3.0088    0.0000 H   0  0  0  0  0  0  0  0  0  0  0  0
    2.9334   -4.0301    0.0000 H   0  0  0  0  0  0  0  0  0  0  0  0
    5.9253    2.4196    0.0000 H   0  0  0  0  0  0  0  0  0  0  0  0
    5.5268    3.1098    0.0000 H   0  0  0  0  0  0  0  0  0  0  0  0
    8.2547   -1.8112    0.0000 H   0  0  0  0  0  0  0  0  0  0  0  0
   10.2485    1.3601    0.0000 H   0  0  0  0  0  0  0  0  0  0  0  0
    3.8381    3.1349    0.0000 H   0  0  0  0  0  0  0  0  0  0  0  0
    4.2366    2.4446    0.0000 H   0  0  0  0  0  0  0  0  0  0  0  0
   10.5343   -0.9075    0.0000 H   0  0  0  0  0  0  0  0  0  0  0  0
   11.9278   -1.7336    0.0000 H   0  0  0  0  0  0  0  0  0  0  0  0
   11.9091   -3.3535    0.0000 H   0  0  0  0  0  0  0  0  0  0  0  0
    3.8927    5.0642    0.0000 H   0  0  0  0  0  0  0  0  0  0  0  0
    3.0457    4.8372    0.0000 H   0  0  0  0  0  0  0  0  0  0  0  0
    3.2727    3.9903    0.0000 H   0  0  0  0  0  0  0  0  0  0  0  0
  1 33  1  0  0  0  0
  2 31  1  0  0  0  0
  3 16  2  0  0  0  0
  4 17  2  0  0  0  0
  5 20  1  0  0  0  0
  5 27  1  0  0  0  0
  6 29  1  0  0  0  0
  6 36  1  0  0  0  0
  7 12  1  0  0  0  0
  7 15  1  0  0  0  0
  7 17  1  0  0  0  0
  8 16  1  0  0  0  0
  8 18  1  0  0  0  0
  8 44  1  0  0  0  0
  9 24  1  0  0  0  0
  9 28  2  0  0  0  0
 10 26  1  0  0  0  0
 10 30  1  0  0  0  0
 10 52  1  0  0  0  0
 11 26  2  0  0  0  0
 11 28  1  0  0  0  0
 12 13  1  0  0  0  0
 12 16  1  1  0  0  0
 12 37  1  0  0  0  0
 13 14  1  0  0  0  0
 13 38  1  0  0  0  0
 13 39  1  0  0  0  0
 14 15  1  0  0  0  0
 14 40  1  0  0  0  0
 14 41  1  0  0  0  0
 15 42  1  0  0  0  0
 15 43  1  0  0  0  0
 17 19  1  0  0  0  0
 18 20  2  0  0  0  0
 18 21  1  0  0  0  0
 19 25  2  0  0  0  0
 19 45  1  0  0  0  0
 20 23  1  0  0  0  0
 21 22  2  0  0  0  0
 21 46  1  0  0  0  0
 22 24  1  0  0  0  0
 22 26  1  0  0  0  0
 23 24  2  0  0  0  0
 23 47  1  0  0  0  0
 25 48  1  0  0  0  0
 25 49  1  0  0  0  0
 27 29  1  0  0  0  0
 27 50  1  0  0  0  0
 27 51  1  0  0  0  0
 28 53  1  0  0  0  0
 29 54  1  0  0  0  0
 29 55  1  0  0  0  0
 30 31  2  0  0  0  0
 30 32  1  0  0  0  0
 31 33  1  0  0  0  0
 32 34  2  0  0  0  0
 32 56  1  0  0  0  0
 33 35  2  0  0  0  0
 34 35  1  0  0  0  0
 34 57  1  0  0  0  0
 35 58  1  0  0  0  0
 36 59  1  0  0  0  0
 36 60  1  0  0  0  0
 36 61  1  0  0  0  0
M  END
> <PUBCHEM_COMPOUND_CID>
24883287

> <PUBCHEM_COMPOUND_CANONICALIZED>
1

> <PUBCHEM_CACTVS_COMPLEXITY>
779

> <PUBCHEM_CACTVS_HBOND_ACCEPTOR>
8

> <PUBCHEM_CACTVS_HBOND_DONOR>
2

> <PUBCHEM_CACTVS_ROTATABLE_BOND>
9

> <PUBCHEM_CACTVS_SUBSKEYS>
AAADceB7uQAEAAAAAAAAAAAAAAAAAWAAAAA8YIAAAAAAAACx9AAAHwIQAAAADC7hni439vfIFACoAydzdACCiCkxJ6AJ2CG/btiPbvLF+/uXPCju1hva6KeY0QMOIACAQgICEABAAQCEBAQgAAAAAAAAAA==

> <PUBCHEM_IUPAC_OPENEYE_NAME>
(2S)-N-[4-(3-chloro-2-fluoro-anilino)-7-(2-methoxyethoxy)quinazolin-6-yl]-1-prop-2-enoyl-pyrrolidine-2-carboxamide

> <PUBCHEM_IUPAC_CAS_NAME>
(2S)-N-[4-(3-chloro-2-fluoroanilino)-7-(2-methoxyethoxy)-6-quinazolinyl]-1-(1-oxoprop-2-enyl)-2-pyrrolidinecarboxamide

> <PUBCHEM_IUPAC_NAME_MARKUP>
(2<I>S</I>)-<I>N</I>-[4-(3-chloro-2-fluoroanilino)-7-(2-methoxyethoxy)quinazolin-6-yl]-1-prop-2-enoylpyrrolidine-2-carboxamide

> <PUBCHEM_IUPAC_NAME>
(2S)-N-[4-(3-chloro-2-fluoroanilino)-7-(2-methoxyethoxy)quinazolin-6-yl]-1-prop-2-enoylpyrrolidine-2-carboxamide

> <PUBCHEM_IUPAC_SYSTEMATIC_NAME>
(2S)-N-[4-[(3-chloranyl-2-fluoranyl-phenyl)amino]-7-(2-methoxyethoxy)quinazolin-6-yl]-1-prop-2-enoyl-pyrrolidine-2-carboxamide

> <PUBCHEM_IUPAC_TRADITIONAL_NAME>
(2S)-1-acryloyl-N-[4-(3-chloro-2-fluoro-anilino)-7-(2-methoxyethoxy)quinazolin-6-yl]pyrrolidine-2-carboxamide

> <PUBCHEM_IUPAC_INCHI>
InChI=1S/C25H25ClFN5O4/c1-3-22(33)32-9-5-8-20(32)25(34)31-19-12-15-18(13-21(19)36-11-10-35-2)28-14-29-24(15)30-17-7-4-6-16(26)23(17)27/h3-4,6-7,12-14,20H,1,5,8-11H2,2H3,(H,31,34)(H,28,29,30)/t20-/m0/s1

> <PUBCHEM_IUPAC_INCHIKEY>
TXSZGBMOPCXBTP-FQEVSTJZSA-N

> <PUBCHEM_XLOGP3_AA>
3.8

> <PUBCHEM_EXACT_MASS>
513.1579102

> <PUBCHEM_MOLECULAR_FORMULA>
C25H25ClFN5O4

> <PUBCHEM_MOLECULAR_WEIGHT>
513.9

> <PUBCHEM_SMILES>
COCCOC1=C(C=C2C(=C1)N=CN=C2NC3=C(C(=CC=C3)Cl)F)NC(=O)[C@@H]4CCCN4C(=O)C=C

> <PUBCHEM_OPENEYE_CAN_SMILES>
COCCOC1=C(C=C2C(=C1)N=CN=C2NC3=C(C(=CC=C3)Cl)F)NC(=O)C4CCCN4C(=O)C=C

> <PUBCHEM_OPENEYE_ISO_SMILES>
COCCOC1=C(C=C2C(=C1)N=CN=C2NC3=C(C(=CC=C3)Cl)F)NC(=O)[C@@H]4CCCN4C(=O)C=C

> <PUBCHEM_CACTVS_TPSA>
106

> <PUBCHEM_MONOISOTOPIC_WEIGHT>
513.1579102

> <PUBCHEM_TOTAL_CHARGE>
0

> <PUBCHEM_HEAVY_ATOM_COUNT>
36

> <PUBCHEM_ATOM_DEF_STEREO_COUNT>
1

> <PUBCHEM_ATOM_UDEF_STEREO_COUNT>
0

> <PUBCHEM_BOND_DEF_STEREO_COUNT>
0

> <PUBCHEM_BOND_UDEF_STEREO_COUNT>
0

> <PUBCHEM_ISOTOPIC_ATOM_COUNT>
0

> <PUBCHEM_COMPONENT_COUNT>
1

> <PUBCHEM_CACTVS_TAUTO_COUNT>
-1

> <PUBCHEM_COORDINATE_TYPE>
1
5
255

> <PUBCHEM_BONDANNOTATIONS>
11  26  8
11  28  8
12  16  5
18  20  8
18  21  8
20  23  8
21  22  8
22  24  8
22  26  8
23  24  8
30  31  8
30  32  8
31  33  8
32  34  8
33  35  8
34  35  8
9  24  8
9  28  8

$$$$
