11406590
  -OEChem-03192523292D

 46 49  0     0  0  0  0  0  0999 V2000
    4.5981    0.5000    0.0000 F   0  0  0  0  0  0  0  0  0  0  0  0
    2.8660    3.5000    0.0000 F   0  0  0  0  0  0  0  0  0  0  0  0
   10.7320   -1.0342    0.0000 O   0  0  0  0  0  0  0  0  0  0  0  0
    2.8660   -0.5000    0.0000 O   0  0  0  0  0  0  0  0  0  0  0  0
    2.8660   -2.5000    0.0000 O   0  0  0  0  0  0  0  0  0  0  0  0
    8.1282   -2.5242    0.0000 N   0  0  0  0  0  0  0  0  0  0  0  0
    6.3580   -2.5347    0.0000 N   0  0  0  0  0  0  0  0  0  0  0  0
    4.5981   -2.5000    0.0000 N   0  0  0  0  0  0  0  0  0  0  0  0
    7.2641   -0.9792    0.0000 N   0  0  0  0  0  0  0  0  0  0  0  0
    8.9962   -2.0275    0.0000 C   0  0  0  0  0  0  0  0  0  0  0  0
    9.0000   -1.0275    0.0000 C   0  0  0  0  0  0  0  0  0  0  0  0
    9.8602   -2.5308    0.0000 C   0  0  0  0  0  0  0  0  0  0  0  0
    9.8680   -0.5308    0.0000 C   0  0  0  0  0  0  0  0  0  0  0  0
   10.7282   -2.0342    0.0000 C   0  0  0  0  0  0  0  0  0  0  0  0
    7.2641   -2.0208    0.0000 C   0  0  0  0  0  0  0  0  0  0  0  0
    5.4641   -2.0000    0.0000 C   0  0  0  0  0  0  0  0  0  0  0  0
    5.4641   -1.0000    0.0000 C   0  0  0  0  0  0  0  0  0  0  0  0
    6.3580   -0.4653    0.0000 C   0  0  0  0  0  0  0  0  0  0  0  0
    4.5981   -0.5000    0.0000 C   0  0  0  0  0  0  0  0  0  0  0  0
    3.7320   -2.0000    0.0000 C   0  0  0  0  0  0  0  0  0  0  0  0
    3.7320   -1.0000    0.0000 C   0  0  0  0  0  0  0  0  0  0  0  0
    4.5981   -3.5000    0.0000 C   0  0  0  0  0  0  0  0  0  0  0  0
    2.8660    0.5000    0.0000 C   0  0  0  0  0  0  0  0  0  0  0  0
    3.7320    1.0000    0.0000 C   0  0  0  0  0  0  0  0  0  0  0  0
    2.0000    1.0000    0.0000 C   0  0  0  0  0  0  0  0  0  0  0  0
    3.7320    2.0000    0.0000 C   0  0  0  0  0  0  0  0  0  0  0  0
    2.0000    2.0000    0.0000 C   0  0  0  0  0  0  0  0  0  0  0  0
    2.8660    2.5000    0.0000 C   0  0  0  0  0  0  0  0  0  0  0  0
    8.4604   -1.7154    0.0000 H   0  0  0  0  0  0  0  0  0  0  0  0
    8.7902   -0.4441    0.0000 H   0  0  0  0  0  0  0  0  0  0  0  0
    8.3890   -1.1328    0.0000 H   0  0  0  0  0  0  0  0  0  0  0  0
    9.4599   -3.0042    0.0000 H   0  0  0  0  0  0  0  0  0  0  0  0
   10.2569   -3.0073    0.0000 H   0  0  0  0  0  0  0  0  0  0  0  0
   10.2683   -0.0574    0.0000 H   0  0  0  0  0  0  0  0  0  0  0  0
    9.4713   -0.0544    0.0000 H   0  0  0  0  0  0  0  0  0  0  0  0
   10.9380   -2.6176    0.0000 H   0  0  0  0  0  0  0  0  0  0  0  0
   11.3392   -1.9289    0.0000 H   0  0  0  0  0  0  0  0  0  0  0  0
    8.1258   -3.1441    0.0000 H   0  0  0  0  0  0  0  0  0  0  0  0
    6.3509    0.1546    0.0000 H   0  0  0  0  0  0  0  0  0  0  0  0
    4.5981    0.1200    0.0000 H   0  0  0  0  0  0  0  0  0  0  0  0
    3.9781   -3.5000    0.0000 H   0  0  0  0  0  0  0  0  0  0  0  0
    4.5981   -4.1200    0.0000 H   0  0  0  0  0  0  0  0  0  0  0  0
    5.2181   -3.5000    0.0000 H   0  0  0  0  0  0  0  0  0  0  0  0
    1.4631    0.6900    0.0000 H   0  0  0  0  0  0  0  0  0  0  0  0
    4.2690    2.3100    0.0000 H   0  0  0  0  0  0  0  0  0  0  0  0
    1.4631    2.3100    0.0000 H   0  0  0  0  0  0  0  0  0  0  0  0
  1 24  1  0  0  0  0
  2 28  1  0  0  0  0
  3 13  1  0  0  0  0
  3 14  1  0  0  0  0
  4 21  1  0  0  0  0
  4 23  1  0  0  0  0
  5 20  2  0  0  0  0
  6 10  1  0  0  0  0
  6 15  1  0  0  0  0
  6 38  1  0  0  0  0
  7 15  1  0  0  0  0
  7 16  2  0  0  0  0
  8 16  1  0  0  0  0
  8 20  1  0  0  0  0
  8 22  1  0  0  0  0
  9 15  2  0  0  0  0
  9 18  1  0  0  0  0
 10 11  1  0  0  0  0
 10 12  1  0  0  0  0
 10 29  1  0  0  0  0
 11 13  1  0  0  0  0
 11 30  1  0  0  0  0
 11 31  1  0  0  0  0
 12 14  1  0  0  0  0
 12 32  1  0  0  0  0
 12 33  1  0  0  0  0
 13 34  1  0  0  0  0
 13 35  1  0  0  0  0
 14 36  1  0  0  0  0
 14 37  1  0  0  0  0
 16 17  1  0  0  0  0
 17 18  2  0  0  0  0
 17 19  1  0  0  0  0
 18 39  1  0  0  0  0
 19 21  2  0  0  0  0
 19 40  1  0  0  0  0
 20 21  1  0  0  0  0
 22 41  1  0  0  0  0
 22 42  1  0  0  0  0
 22 43  1  0  0  0  0
 23 24  2  0  0  0  0
 23 25  1  0  0  0  0
 24 26  1  0  0  0  0
 25 27  2  0  0  0  0
 25 44  1  0  0  0  0
 26 28  2  0  0  0  0
 26 45  1  0  0  0  0
 27 28  1  0  0  0  0
 27 46  1  0  0  0  0
M  END
> <PUBCHEM_COMPOUND_CID>
11406590

> <PUBCHEM_COMPOUND_CANONICALIZED>
1

> <PUBCHEM_CACTVS_COMPLEXITY>
602

> <PUBCHEM_CACTVS_HBOND_ACCEPTOR>
8

> <PUBCHEM_CACTVS_HBOND_DONOR>
1

> <PUBCHEM_CACTVS_ROTATABLE_BOND>
4

> <PUBCHEM_CACTVS_SUBSKEYS>
AAADceB7sYAAAAAAAAAAAAAAAAAAAAAAAAA8SIEAAAAAAACBwAAAHwAQAAAADCzhmg4/tpfIFACoAjN3dAKCiCkxIKAJ2KBuTNiOLqLEeV6HPCiu1xPYqaeAQAAAAAAAAAAAAAAAAAAAAAAAAAAAAAAAAA==

> <PUBCHEM_IUPAC_OPENEYE_NAME>
6-(2,4-difluorophenoxy)-8-methyl-2-(tetrahydropyran-4-ylamino)pyrido[2,3-d]pyrimidin-7-one

> <PUBCHEM_IUPAC_CAS_NAME>
6-(2,4-difluorophenoxy)-8-methyl-2-(4-oxanylamino)-7-pyrido[2,3-d]pyrimidinone

> <PUBCHEM_IUPAC_NAME_MARKUP>
6-(2,4-difluorophenoxy)-8-methyl-2-(oxan-4-ylamino)pyrido[2,3-d]pyrimidin-7-one

> <PUBCHEM_IUPAC_NAME>
6-(2,4-difluorophenoxy)-8-methyl-2-(oxan-4-ylamino)pyrido[2,3-d]pyrimidin-7-one

> <PUBCHEM_IUPAC_SYSTEMATIC_NAME>
6-[2,4-bis(fluoranyl)phenoxy]-8-methyl-2-(oxan-4-ylamino)pyrido[2,3-d]pyrimidin-7-one

> <PUBCHEM_IUPAC_TRADITIONAL_NAME>
6-(2,4-difluorophenoxy)-8-methyl-2-(tetrahydropyran-4-ylamino)pyrido[2,3-d]pyrimidin-7-one

> <PUBCHEM_IUPAC_INCHI>
InChI=1S/C19H18F2N4O3/c1-25-17-11(10-22-19(24-17)23-13-4-6-27-7-5-13)8-16(18(25)26)28-15-3-2-12(20)9-14(15)21/h2-3,8-10,13H,4-7H2,1H3,(H,22,23,24)

> <PUBCHEM_IUPAC_INCHIKEY>
KKKRKRMVJRHDMG-UHFFFAOYSA-N

> <PUBCHEM_XLOGP3_AA>
2.8

> <PUBCHEM_EXACT_MASS>
388.13469677

> <PUBCHEM_MOLECULAR_FORMULA>
C19H18F2N4O3

> <PUBCHEM_MOLECULAR_WEIGHT>
388.4

> <PUBCHEM_SMILES>
CN1C2=NC(=NC=C2C=C(C1=O)OC3=C(C=C(C=C3)F)F)NC4CCOCC4

> <PUBCHEM_OPENEYE_CAN_SMILES>
CN1C2=NC(=NC=C2C=C(C1=O)OC3=C(C=C(C=C3)F)F)NC4CCOCC4

> <PUBCHEM_OPENEYE_ISO_SMILES>
CN1C2=NC(=NC=C2C=C(C1=O)OC3=C(C=C(C=C3)F)F)NC4CCOCC4

> <PUBCHEM_CACTVS_TPSA>
76.6

> <PUBCHEM_MONOISOTOPIC_WEIGHT>
388.13469677

> <PUBCHEM_TOTAL_CHARGE>
0

> <PUBCHEM_HEAVY_ATOM_COUNT>
28

> <PUBCHEM_ATOM_DEF_STEREO_COUNT>
0

> <PUBCHEM_ATOM_UDEF_STEREO_COUNT>
0

> <PUBCHEM_BOND_DEF_STEREO_COUNT>
0

> <PUBCHEM_BOND_UDEF_STEREO_COUNT>
0

> <PUBCHEM_ISOTOPIC_ATOM_COUNT>
0

> <PUBCHEM_COMPONENT_COUNT>
1

> <PUBCHEM_CACTVS_TAUTO_COUNT>
-1

> <PUBCHEM_COORDINATE_TYPE>
1
5
255

> <PUBCHEM_BONDANNOTATIONS>
16  17  8
17  18  8
17  19  8
19  21  8
20  21  8
23  24  8
23  25  8
24  26  8
25  27  8
26  28  8
27  28  8
7  15  8
7  16  8
8  16  8
8  20  8
9  15  8
9  18  8

$$$$
