5031818
  -OEChem-03202504142D

 39 42  0     0  0  0  0  0  0999 V2000
    2.8090    1.9985    0.0000 S   0  0  0  0  0  0  0  0  0  0  0  0
   11.8356   -0.2606    0.0000 O   0  0  0  0  0  0  0  0  0  0  0  0
    6.7985   -0.2877    0.0000 O   0  0  0  0  0  0  0  0  0  0  0  0
    9.5755    0.9995    0.0000 N   0  0  0  0  0  0  0  0  0  0  0  0
    9.2665    1.9506    0.0000 N   0  0  0  0  0  0  0  0  0  0  0  0
    8.2665    1.9506    0.0000 N   0  0  0  0  0  0  0  0  0  0  0  0
   10.8356   -0.2606    0.0000 N   0  0  0  0  0  0  0  0  0  0  0  0
    6.2633    1.3596    0.0000 N   0  0  0  0  0  0  0  0  0  0  0  0
   12.1446    0.6905    0.0000 N   0  0  0  0  0  0  0  0  0  0  0  0
   11.3356    2.2783    0.0000 N   0  0  0  0  0  0  0  0  0  0  0  0
    5.3122    1.0506    0.0000 N   0  0  0  0  0  0  0  0  0  0  0  0
    8.7665    0.4117    0.0000 C   0  0  0  0  0  0  0  0  0  0  0  0
    8.7665   -0.5883    0.0000 C   0  0  0  0  0  0  0  0  0  0  0  0
    7.9575    0.9995    0.0000 C   0  0  0  0  0  0  0  0  0  0  0  0
   10.5266    0.6905    0.0000 C   0  0  0  0  0  0  0  0  0  0  0  0
    7.9005   -1.0883    0.0000 C   0  0  0  0  0  0  0  0  0  0  0  0
    9.6325   -1.0883    0.0000 C   0  0  0  0  0  0  0  0  0  0  0  0
    7.0064    0.6905    0.0000 C   0  0  0  0  0  0  0  0  0  0  0  0
    7.9005   -2.0883    0.0000 C   0  0  0  0  0  0  0  0  0  0  0  0
    9.6325   -2.0883    0.0000 C   0  0  0  0  0  0  0  0  0  0  0  0
   11.3356    1.2783    0.0000 C   0  0  0  0  0  0  0  0  0  0  0  0
    8.7665   -2.5883    0.0000 C   0  0  0  0  0  0  0  0  0  0  0  0
    3.6180    1.4107    0.0000 C   0  0  0  0  0  0  0  0  0  0  0  0
    4.5691    1.7197    0.0000 C   0  0  0  0  0  0  0  0  0  0  0  0
    3.3090    0.4597    0.0000 C   0  0  0  0  0  0  0  0  0  0  0  0
    2.3090    0.4597    0.0000 C   0  0  0  0  0  0  0  0  0  0  0  0
    2.0000    1.4107    0.0000 C   0  0  0  0  0  0  0  0  0  0  0  0
    7.3636   -0.7783    0.0000 H   0  0  0  0  0  0  0  0  0  0  0  0
   10.1695   -0.7783    0.0000 H   0  0  0  0  0  0  0  0  0  0  0  0
    7.3636   -2.3983    0.0000 H   0  0  0  0  0  0  0  0  0  0  0  0
   10.1695   -2.3983    0.0000 H   0  0  0  0  0  0  0  0  0  0  0  0
    8.7665   -3.2083    0.0000 H   0  0  0  0  0  0  0  0  0  0  0  0
    6.3922    1.9661    0.0000 H   0  0  0  0  0  0  0  0  0  0  0  0
   11.8725    2.5883    0.0000 H   0  0  0  0  0  0  0  0  0  0  0  0
   10.7987    2.5883    0.0000 H   0  0  0  0  0  0  0  0  0  0  0  0
    4.6980    2.3262    0.0000 H   0  0  0  0  0  0  0  0  0  0  0  0
    3.6734   -0.0419    0.0000 H   0  0  0  0  0  0  0  0  0  0  0  0
    1.9446   -0.0419    0.0000 H   0  0  0  0  0  0  0  0  0  0  0  0
    1.4103    1.6023    0.0000 H   0  0  0  0  0  0  0  0  0  0  0  0
  1 23  1  0  0  0  0
  1 27  1  0  0  0  0
  2  7  1  0  0  0  0
  2  9  1  0  0  0  0
  3 18  2  0  0  0  0
  4  5  1  0  0  0  0
  4 12  1  0  0  0  0
  4 15  1  0  0  0  0
  5  6  2  0  0  0  0
  6 14  1  0  0  0  0
  7 15  2  0  0  0  0
  8 11  1  0  0  0  0
  8 18  1  0  0  0  0
  8 33  1  0  0  0  0
  9 21  2  0  0  0  0
 10 21  1  0  0  0  0
 10 34  1  0  0  0  0
 10 35  1  0  0  0  0
 11 24  2  3  0  0  0
 12 13  1  0  0  0  0
 12 14  2  0  0  0  0
 13 16  2  0  0  0  0
 13 17  1  0  0  0  0
 14 18  1  0  0  0  0
 15 21  1  0  0  0  0
 16 19  1  0  0  0  0
 16 28  1  0  0  0  0
 17 20  2  0  0  0  0
 17 29  1  0  0  0  0
 19 22  2  0  0  0  0
 19 30  1  0  0  0  0
 20 22  1  0  0  0  0
 20 31  1  0  0  0  0
 22 32  1  0  0  0  0
 23 24  1  0  0  0  0
 23 25  2  0  0  0  0
 24 36  1  0  0  0  0
 25 26  1  0  0  0  0
 25 37  1  0  0  0  0
 26 27  2  0  0  0  0
 26 38  1  0  0  0  0
 27 39  1  0  0  0  0
M  END
> <PUBCHEM_COMPOUND_CID>
5031818

> <PUBCHEM_COMPOUND_CANONICALIZED>
1

> <PUBCHEM_CACTVS_COMPLEXITY>
547

> <PUBCHEM_CACTVS_HBOND_ACCEPTOR>
9

> <PUBCHEM_CACTVS_HBOND_DONOR>
2

> <PUBCHEM_CACTVS_ROTATABLE_BOND>
5

> <PUBCHEM_CACTVS_SUBSKEYS>
AAADccB78ABAAAAAAAAAAAAAAAAAAWLEgAAwAAAAAAAAAAAB/AAAHgQcAAAADAjF3gSxsZJ6AAivAzdzdgCTBKQnGBB/mDmgVNqIYPrg2RGUIYhgiILoyWcYiICOAAAAAAAAAAAAAAAAAAAAAAAAAAAAAA==

> <PUBCHEM_IUPAC_OPENEYE_NAME>
1-(4-amino-1,2,5-oxadiazol-3-yl)-5-phenyl-N-(2-thienylmethyleneamino)triazole-4-carboxamide

> <PUBCHEM_IUPAC_CAS_NAME>
1-(4-amino-1,2,5-oxadiazol-3-yl)-5-phenyl-N-(thiophen-2-ylmethylideneamino)-4-triazolecarboxamide

> <PUBCHEM_IUPAC_NAME_MARKUP>
1-(4-amino-1,2,5-oxadiazol-3-yl)-5-phenyl-<I>N</I>-(thiophen-2-ylmethylideneamino)triazole-4-carboxamide

> <PUBCHEM_IUPAC_NAME>
1-(4-amino-1,2,5-oxadiazol-3-yl)-5-phenyl-N-(thiophen-2-ylmethylideneamino)triazole-4-carboxamide

> <PUBCHEM_IUPAC_SYSTEMATIC_NAME>
1-(4-azanyl-1,2,5-oxadiazol-3-yl)-5-phenyl-N-(thiophen-2-ylmethylideneamino)-1,2,3-triazole-4-carboxamide

> <PUBCHEM_IUPAC_TRADITIONAL_NAME>
1-(4-aminofurazan-3-yl)-5-phenyl-N-(2-thenylideneamino)triazole-4-carboxamide

> <PUBCHEM_IUPAC_INCHI>
InChI=1S/C16H12N8O2S/c17-14-15(22-26-21-14)24-13(10-5-2-1-3-6-10)12(19-23-24)16(25)20-18-9-11-7-4-8-27-11/h1-9H,(H2,17,21)(H,20,25)

> <PUBCHEM_IUPAC_INCHIKEY>
JCTPJYZESAMIGH-UHFFFAOYSA-N

> <PUBCHEM_XLOGP3_AA>
2.1

> <PUBCHEM_EXACT_MASS>
380.08039283

> <PUBCHEM_MOLECULAR_FORMULA>
C16H12N8O2S

> <PUBCHEM_MOLECULAR_WEIGHT>
380.4

> <PUBCHEM_SMILES>
C1=CC=C(C=C1)C2=C(N=NN2C3=NON=C3N)C(=O)NN=CC4=CC=CS4

> <PUBCHEM_OPENEYE_CAN_SMILES>
C1=CC=C(C=C1)C2=C(N=NN2C3=NON=C3N)C(=O)NN=CC4=CC=CS4

> <PUBCHEM_OPENEYE_ISO_SMILES>
C1=CC=C(C=C1)C2=C(N=NN2C3=NON=C3N)C(=O)NN=CC4=CC=CS4

> <PUBCHEM_CACTVS_TPSA>
165

> <PUBCHEM_MONOISOTOPIC_WEIGHT>
380.08039283

> <PUBCHEM_TOTAL_CHARGE>
0

> <PUBCHEM_HEAVY_ATOM_COUNT>
27

> <PUBCHEM_ATOM_DEF_STEREO_COUNT>
0

> <PUBCHEM_ATOM_UDEF_STEREO_COUNT>
0

> <PUBCHEM_BOND_DEF_STEREO_COUNT>
0

> <PUBCHEM_BOND_UDEF_STEREO_COUNT>
1

> <PUBCHEM_ISOTOPIC_ATOM_COUNT>
0

> <PUBCHEM_COMPONENT_COUNT>
1

> <PUBCHEM_CACTVS_TAUTO_COUNT>
-1

> <PUBCHEM_COORDINATE_TYPE>
1
5
255

> <PUBCHEM_BONDANNOTATIONS>
1  23  8
1  27  8
11  24  1
12  14  8
13  16  8
13  17  8
15  21  8
16  19  8
17  20  8
19  22  8
2  7  8
2  9  8
20  22  8
23  25  8
25  26  8
26  27  8
4  12  8
4  5  8
5  6  8
6  14  8
7  15  8
9  21  8

$$$$
