4269486
  -OEChem-03202501342D

 15 16  0     0  0  0  0  0  0999 V2000
    4.6783   -1.4597    0.0000 S   0  0  0  0  0  0  0  0  0  0  0  0
    2.8660   -1.6550    0.0000 N   0  0  0  0  0  0  0  0  0  0  0  0
    2.0000   -0.1550    0.0000 N   0  0  0  0  0  0  0  0  0  0  0  0
    2.8660    1.3450    0.0000 N   0  0  0  0  0  0  0  0  0  0  0  0
    3.7320   -0.1550    0.0000 C   0  0  0  0  0  0  0  0  0  0  0  0
    3.7320   -1.1550    0.0000 C   0  0  0  0  0  0  0  0  0  0  0  0
    2.8660    0.3450    0.0000 C   0  0  0  0  0  0  0  0  0  0  0  0
    4.6783    0.1497    0.0000 C   0  0  0  0  0  0  0  0  0  0  0  0
    5.2619   -0.6550    0.0000 C   0  0  0  0  0  0  0  0  0  0  0  0
    2.0000   -1.1550    0.0000 C   0  0  0  0  0  0  0  0  0  0  0  0
    4.8709    0.7391    0.0000 H   0  0  0  0  0  0  0  0  0  0  0  0
    5.8819   -0.6550    0.0000 H   0  0  0  0  0  0  0  0  0  0  0  0
    1.4631   -1.4650    0.0000 H   0  0  0  0  0  0  0  0  0  0  0  0
    2.3291    1.6550    0.0000 H   0  0  0  0  0  0  0  0  0  0  0  0
    3.4030    1.6550    0.0000 H   0  0  0  0  0  0  0  0  0  0  0  0
  1  6  1  0  0  0  0
  1  9  1  0  0  0  0
  2  6  2  0  0  0  0
  2 10  1  0  0  0  0
  3  7  1  0  0  0  0
  3 10  2  0  0  0  0
  4  7  1  0  0  0  0
  4 14  1  0  0  0  0
  4 15  1  0  0  0  0
  5  6  1  0  0  0  0
  5  7  2  0  0  0  0
  5  8  1  0  0  0  0
  8  9  2  0  0  0  0
  8 11  1  0  0  0  0
  9 12  1  0  0  0  0
 10 13  1  0  0  0  0
M  END
> <PUBCHEM_COMPOUND_CID>
4269486

> <PUBCHEM_COMPOUND_CANONICALIZED>
1

> <PUBCHEM_CACTVS_COMPLEXITY>
130

> <PUBCHEM_CACTVS_HBOND_ACCEPTOR>
4

> <PUBCHEM_CACTVS_HBOND_DONOR>
1

> <PUBCHEM_CACTVS_ROTATABLE_BOND>
0

> <PUBCHEM_CACTVS_SUBSKEYS>
AAADcYBjAABAAAAAAAAAAAAAAAAAASAAAAAsAAAAAAAAAFgB+AAAHAQQAAAADACFWgS1sdZIEAikAiJjZACD0KlxCLhJ2DgoRJiIKIBgyMEEBAxIAAJgQCAAAAAIAAAAAAAAAAAAAAAAAAAAAAAAAAAAAA==

> <PUBCHEM_IUPAC_OPENEYE_NAME>
thieno[2,3-d]pyrimidin-4-amine

> <PUBCHEM_IUPAC_CAS_NAME>
4-thieno[2,3-d]pyrimidinamine

> <PUBCHEM_IUPAC_NAME_MARKUP>
thieno[2,3-d]pyrimidin-4-amine

> <PUBCHEM_IUPAC_NAME>
thieno[2,3-d]pyrimidin-4-amine

> <PUBCHEM_IUPAC_SYSTEMATIC_NAME>
thieno[2,3-d]pyrimidin-4-amine

> <PUBCHEM_IUPAC_TRADITIONAL_NAME>
thieno[2,3-d]pyrimidin-4-ylamine

> <PUBCHEM_IUPAC_INCHI>
InChI=1S/C6H5N3S/c7-5-4-1-2-10-6(4)9-3-8-5/h1-3H,(H2,7,8,9)

> <PUBCHEM_IUPAC_INCHIKEY>
DYTQGJLVGDSCLF-UHFFFAOYSA-N

> <PUBCHEM_XLOGP3>
0.8

> <PUBCHEM_EXACT_MASS>
151.02041835

> <PUBCHEM_MOLECULAR_FORMULA>
C6H5N3S

> <PUBCHEM_MOLECULAR_WEIGHT>
151.19

> <PUBCHEM_SMILES>
C1=CSC2=NC=NC(=C21)N

> <PUBCHEM_OPENEYE_CAN_SMILES>
C1=CSC2=NC=NC(=C21)N

> <PUBCHEM_OPENEYE_ISO_SMILES>
C1=CSC2=NC=NC(=C21)N

> <PUBCHEM_CACTVS_TPSA>
80

> <PUBCHEM_MONOISOTOPIC_WEIGHT>
151.02041835

> <PUBCHEM_TOTAL_CHARGE>
0

> <PUBCHEM_HEAVY_ATOM_COUNT>
10

> <PUBCHEM_ATOM_DEF_STEREO_COUNT>
0

> <PUBCHEM_ATOM_UDEF_STEREO_COUNT>
0

> <PUBCHEM_BOND_DEF_STEREO_COUNT>
0

> <PUBCHEM_BOND_UDEF_STEREO_COUNT>
0

> <PUBCHEM_ISOTOPIC_ATOM_COUNT>
0

> <PUBCHEM_COMPONENT_COUNT>
1

> <PUBCHEM_CACTVS_TAUTO_COUNT>
-1

> <PUBCHEM_COORDINATE_TYPE>
1
5
255

> <PUBCHEM_BONDANNOTATIONS>
1  6  8
1  9  8
2  10  8
2  6  8
3  10  8
3  7  8
5  6  8
5  7  8
5  8  8
8  9  8

$$$$
