11268820
  -OEChem-03202502302D

 47 50  0     0  0  0  0  0  0999 V2000
    2.0000    4.4470    0.0000 F   0  0  0  0  0  0  0  0  0  0  0  0
    4.5981    0.9470    0.0000 O   0  0  0  0  0  0  0  0  0  0  0  0
    8.1424   -4.8577    0.0000 N   0  0  0  0  0  0  0  0  0  0  0  0
    8.7260   -4.0530    0.0000 N   0  0  0  0  0  0  0  0  0  0  0  0
    5.4641    2.4470    0.0000 N   0  0  0  0  0  0  0  0  0  0  0  0
    8.4530   -2.2977    0.0000 N   0  0  0  0  0  0  0  0  0  0  0  0
    6.3301   -3.0530    0.0000 C   0  0  0  0  0  0  0  0  0  0  0  0
    7.1962   -3.5530    0.0000 C   0  0  0  0  0  0  0  0  0  0  0  0
    6.3301   -2.0530    0.0000 C   0  0  0  0  0  0  0  0  0  0  0  0
    7.1962   -4.5530    0.0000 C   0  0  0  0  0  0  0  0  0  0  0  0
    6.3301   -0.0530    0.0000 C   0  0  0  0  0  0  0  0  0  0  0  0
    5.4641   -3.5530    0.0000 C   0  0  0  0  0  0  0  0  0  0  0  0
    5.4641   -1.5530    0.0000 C   0  0  0  0  0  0  0  0  0  0  0  0
    7.1962   -1.5530    0.0000 C   0  0  0  0  0  0  0  0  0  0  0  0
    8.1424   -3.2482    0.0000 C   0  0  0  0  0  0  0  0  0  0  0  0
    6.3301    0.9470    0.0000 C   0  0  0  0  0  0  0  0  0  0  0  0
    5.4641   -0.5530    0.0000 C   0  0  0  0  0  0  0  0  0  0  0  0
    7.1962   -0.5530    0.0000 C   0  0  0  0  0  0  0  0  0  0  0  0
    6.3301   -5.0530    0.0000 C   0  0  0  0  0  0  0  0  0  0  0  0
    5.4641   -4.5530    0.0000 C   0  0  0  0  0  0  0  0  0  0  0  0
    5.4641    1.4470    0.0000 C   0  0  0  0  0  0  0  0  0  0  0  0
    4.5981    2.9470    0.0000 C   0  0  0  0  0  0  0  0  0  0  0  0
    4.5981    3.9470    0.0000 C   0  0  0  0  0  0  0  0  0  0  0  0
    3.7320    4.4470    0.0000 C   0  0  0  0  0  0  0  0  0  0  0  0
    3.7320    2.4470    0.0000 C   0  0  0  0  0  0  0  0  0  0  0  0
    2.8660    3.9470    0.0000 C   0  0  0  0  0  0  0  0  0  0  0  0
    2.8660    2.9470    0.0000 C   0  0  0  0  0  0  0  0  0  0  0  0
    3.7320    5.4470    0.0000 C   0  0  0  0  0  0  0  0  0  0  0  0
    4.9272   -3.2430    0.0000 H   0  0  0  0  0  0  0  0  0  0  0  0
    4.9272   -1.8630    0.0000 H   0  0  0  0  0  0  0  0  0  0  0  0
    7.7331   -1.8630    0.0000 H   0  0  0  0  0  0  0  0  0  0  0  0
    6.9407    0.8394    0.0000 H   0  0  0  0  0  0  0  0  0  0  0  0
    6.5422    1.5296    0.0000 H   0  0  0  0  0  0  0  0  0  0  0  0
    4.9272   -0.2430    0.0000 H   0  0  0  0  0  0  0  0  0  0  0  0
    7.7331   -0.2430    0.0000 H   0  0  0  0  0  0  0  0  0  0  0  0
    6.3301   -5.6730    0.0000 H   0  0  0  0  0  0  0  0  0  0  0  0
    4.9272   -4.8630    0.0000 H   0  0  0  0  0  0  0  0  0  0  0  0
    8.3350   -5.4470    0.0000 H   0  0  0  0  0  0  0  0  0  0  0  0
    6.0010    2.7570    0.0000 H   0  0  0  0  0  0  0  0  0  0  0  0
    9.0597   -2.1699    0.0000 H   0  0  0  0  0  0  0  0  0  0  0  0
    8.0390   -1.8362    0.0000 H   0  0  0  0  0  0  0  0  0  0  0  0
    5.1350    4.2570    0.0000 H   0  0  0  0  0  0  0  0  0  0  0  0
    3.7320    1.8270    0.0000 H   0  0  0  0  0  0  0  0  0  0  0  0
    2.3291    2.6370    0.0000 H   0  0  0  0  0  0  0  0  0  0  0  0
    4.3520    5.4470    0.0000 H   0  0  0  0  0  0  0  0  0  0  0  0
    3.7320    6.0670    0.0000 H   0  0  0  0  0  0  0  0  0  0  0  0
    3.1120    5.4470    0.0000 H   0  0  0  0  0  0  0  0  0  0  0  0
  1 26  1  0  0  0  0
  2 21  2  0  0  0  0
  3  4  1  0  0  0  0
  3 10  1  0  0  0  0
  3 38  1  0  0  0  0
  4 15  2  0  0  0  0
  5 21  1  0  0  0  0
  5 22  1  0  0  0  0
  5 39  1  0  0  0  0
  6 15  1  0  0  0  0
  6 40  1  0  0  0  0
  6 41  1  0  0  0  0
  7  8  2  0  0  0  0
  7  9  1  0  0  0  0
  7 12  1  0  0  0  0
  8 10  1  0  0  0  0
  8 15  1  0  0  0  0
  9 13  2  0  0  0  0
  9 14  1  0  0  0  0
 10 19  2  0  0  0  0
 11 16  1  0  0  0  0
 11 17  2  0  0  0  0
 11 18  1  0  0  0  0
 12 20  2  0  0  0  0
 12 29  1  0  0  0  0
 13 17  1  0  0  0  0
 13 30  1  0  0  0  0
 14 18  2  0  0  0  0
 14 31  1  0  0  0  0
 16 21  1  0  0  0  0
 16 32  1  0  0  0  0
 16 33  1  0  0  0  0
 17 34  1  0  0  0  0
 18 35  1  0  0  0  0
 19 20  1  0  0  0  0
 19 36  1  0  0  0  0
 20 37  1  0  0  0  0
 22 23  2  0  0  0  0
 22 25  1  0  0  0  0
 23 24  1  0  0  0  0
 23 42  1  0  0  0  0
 24 26  2  0  0  0  0
 24 28  1  0  0  0  0
 25 27  2  0  0  0  0
 25 43  1  0  0  0  0
 26 27  1  0  0  0  0
 27 44  1  0  0  0  0
 28 45  1  0  0  0  0
 28 46  1  0  0  0  0
 28 47  1  0  0  0  0
M  END
> <PUBCHEM_COMPOUND_CID>
11268820

> <PUBCHEM_COMPOUND_CANONICALIZED>
1

> <PUBCHEM_CACTVS_COMPLEXITY>
539

> <PUBCHEM_CACTVS_HBOND_ACCEPTOR>
4

> <PUBCHEM_CACTVS_HBOND_DONOR>
3

> <PUBCHEM_CACTVS_ROTATABLE_BOND>
4

> <PUBCHEM_CACTVS_SUBSKEYS>
AAADceB7oQAAAAAAAAAAAAAAAAAAAWAAAAAwYMAAAAAAAFgB9AAAHwAYAAAADAiBnggz8PLjAACqAydycACSBAIhAgAcuSEwZJgIILLA1dGEpAhwnADIyAcYiMCOwAAAQAASAACAAACAACQAAAAAAAAAAA==

> <PUBCHEM_IUPAC_OPENEYE_NAME>
2-[4-(3-amino-1H-indazol-4-yl)phenyl]-N-(4-fluoro-3-methyl-phenyl)acetamide

> <PUBCHEM_IUPAC_CAS_NAME>
2-[4-(3-amino-1H-indazol-4-yl)phenyl]-N-(4-fluoro-3-methylphenyl)acetamide

> <PUBCHEM_IUPAC_NAME_MARKUP>
2-[4-(3-amino-1<I>H</I>-indazol-4-yl)phenyl]-<I>N</I>-(4-fluoro-3-methylphenyl)acetamide

> <PUBCHEM_IUPAC_NAME>
2-[4-(3-amino-1H-indazol-4-yl)phenyl]-N-(4-fluoro-3-methylphenyl)acetamide

> <PUBCHEM_IUPAC_SYSTEMATIC_NAME>
2-[4-(3-azanyl-1H-indazol-4-yl)phenyl]-N-(4-fluoranyl-3-methyl-phenyl)ethanamide

> <PUBCHEM_IUPAC_TRADITIONAL_NAME>
2-[4-(3-amino-1H-indazol-4-yl)phenyl]-N-(4-fluoro-3-methyl-phenyl)acetamide

> <PUBCHEM_IUPAC_INCHI>
InChI=1S/C22H19FN4O/c1-13-11-16(9-10-18(13)23)25-20(28)12-14-5-7-15(8-6-14)17-3-2-4-19-21(17)22(24)27-26-19/h2-11H,12H2,1H3,(H,25,28)(H3,24,26,27)

> <PUBCHEM_IUPAC_INCHIKEY>
MADCXGNPDBWPLM-UHFFFAOYSA-N

> <PUBCHEM_XLOGP3_AA>
4.1

> <PUBCHEM_EXACT_MASS>
374.15428940

> <PUBCHEM_MOLECULAR_FORMULA>
C22H19FN4O

> <PUBCHEM_MOLECULAR_WEIGHT>
374.4

> <PUBCHEM_SMILES>
CC1=C(C=CC(=C1)NC(=O)CC2=CC=C(C=C2)C3=C4C(=CC=C3)NN=C4N)F

> <PUBCHEM_OPENEYE_CAN_SMILES>
CC1=C(C=CC(=C1)NC(=O)CC2=CC=C(C=C2)C3=C4C(=CC=C3)NN=C4N)F

> <PUBCHEM_OPENEYE_ISO_SMILES>
CC1=C(C=CC(=C1)NC(=O)CC2=CC=C(C=C2)C3=C4C(=CC=C3)NN=C4N)F

> <PUBCHEM_CACTVS_TPSA>
83.8

> <PUBCHEM_MONOISOTOPIC_WEIGHT>
374.15428940

> <PUBCHEM_TOTAL_CHARGE>
0

> <PUBCHEM_HEAVY_ATOM_COUNT>
28

> <PUBCHEM_ATOM_DEF_STEREO_COUNT>
0

> <PUBCHEM_ATOM_UDEF_STEREO_COUNT>
0

> <PUBCHEM_BOND_DEF_STEREO_COUNT>
0

> <PUBCHEM_BOND_UDEF_STEREO_COUNT>
0

> <PUBCHEM_ISOTOPIC_ATOM_COUNT>
0

> <PUBCHEM_COMPONENT_COUNT>
1

> <PUBCHEM_CACTVS_TAUTO_COUNT>
-1

> <PUBCHEM_COORDINATE_TYPE>
1
5
255

> <PUBCHEM_BONDANNOTATIONS>
10  19  8
11  17  8
11  18  8
12  20  8
13  17  8
14  18  8
19  20  8
22  23  8
22  25  8
23  24  8
24  26  8
25  27  8
26  27  8
3  10  8
3  4  8
4  15  8
7  12  8
7  8  8
8  10  8
8  15  8
9  13  8
9  14  8

$$$$
