9796455
  -OEChem-03192523162D

 43 45  0     0  0  0  0  0  0999 V2000
   10.7340    0.9625    0.0000 O   0  0  0  0  0  0  0  0  0  0  0  0
    2.0000   -1.0000    0.0000 O   0  0  0  0  0  0  0  0  0  0  0  0
    2.0000    1.0000    0.0000 O   0  0  0  0  0  0  0  0  0  0  0  0
    7.2622   -1.0241    0.0000 N   0  0  0  0  0  0  0  0  0  0  0  0
    5.4920   -1.0347    0.0000 N   0  0  0  0  0  0  0  0  0  0  0  0
    5.4920    1.0347    0.0000 N   0  0  0  0  0  0  0  0  0  0  0  0
    8.1301   -0.5275    0.0000 C   0  0  0  0  0  0  0  0  0  0  0  0
    8.1340    0.4725    0.0000 C   0  0  0  0  0  0  0  0  0  0  0  0
    8.9942   -1.0308    0.0000 C   0  0  0  0  0  0  0  0  0  0  0  0
    9.8660    0.4658    0.0000 C   0  0  0  0  0  0  0  0  0  0  0  0
    9.0019    0.9692    0.0000 C   0  0  0  0  0  0  0  0  0  0  0  0
    9.8622   -0.5342    0.0000 C   0  0  0  0  0  0  0  0  0  0  0  0
    6.3981   -0.5208    0.0000 C   0  0  0  0  0  0  0  0  0  0  0  0
    6.3981    0.5208    0.0000 C   0  0  0  0  0  0  0  0  0  0  0  0
    4.5981   -0.5000    0.0000 C   0  0  0  0  0  0  0  0  0  0  0  0
    4.5981    0.5000    0.0000 C   0  0  0  0  0  0  0  0  0  0  0  0
    3.7320   -1.0000    0.0000 C   0  0  0  0  0  0  0  0  0  0  0  0
    3.7320    1.0000    0.0000 C   0  0  0  0  0  0  0  0  0  0  0  0
    2.8660   -0.5000    0.0000 C   0  0  0  0  0  0  0  0  0  0  0  0
    2.8660    0.5000    0.0000 C   0  0  0  0  0  0  0  0  0  0  0  0
    2.0000   -2.0000    0.0000 C   0  0  0  0  0  0  0  0  0  0  0  0
    2.0000    2.0000    0.0000 C   0  0  0  0  0  0  0  0  0  0  0  0
    8.1277   -1.1475    0.0000 H   0  0  0  0  0  0  0  0  0  0  0  0
    7.9242    1.0559    0.0000 H   0  0  0  0  0  0  0  0  0  0  0  0
    7.5230    0.3672    0.0000 H   0  0  0  0  0  0  0  0  0  0  0  0
    8.5939   -1.5042    0.0000 H   0  0  0  0  0  0  0  0  0  0  0  0
    9.3909   -1.5073    0.0000 H   0  0  0  0  0  0  0  0  0  0  0  0
    9.8684    1.0858    0.0000 H   0  0  0  0  0  0  0  0  0  0  0  0
    9.4023    1.4426    0.0000 H   0  0  0  0  0  0  0  0  0  0  0  0
    8.6052    1.4456    0.0000 H   0  0  0  0  0  0  0  0  0  0  0  0
   10.0720   -1.1176    0.0000 H   0  0  0  0  0  0  0  0  0  0  0  0
   10.4732   -0.4289    0.0000 H   0  0  0  0  0  0  0  0  0  0  0  0
    7.2598   -1.6442    0.0000 H   0  0  0  0  0  0  0  0  0  0  0  0
   11.2697    0.6504    0.0000 H   0  0  0  0  0  0  0  0  0  0  0  0
    6.9338    0.8329    0.0000 H   0  0  0  0  0  0  0  0  0  0  0  0
    3.7320   -1.6200    0.0000 H   0  0  0  0  0  0  0  0  0  0  0  0
    3.7320    1.6200    0.0000 H   0  0  0  0  0  0  0  0  0  0  0  0
    1.3800   -2.0000    0.0000 H   0  0  0  0  0  0  0  0  0  0  0  0
    2.0000   -2.6200    0.0000 H   0  0  0  0  0  0  0  0  0  0  0  0
    2.6200   -2.0000    0.0000 H   0  0  0  0  0  0  0  0  0  0  0  0
    2.6200    2.0000    0.0000 H   0  0  0  0  0  0  0  0  0  0  0  0
    2.0000    2.6200    0.0000 H   0  0  0  0  0  0  0  0  0  0  0  0
    1.3800    2.0000    0.0000 H   0  0  0  0  0  0  0  0  0  0  0  0
  1 10  1  0  0  0  0
  1 34  1  0  0  0  0
  2 19  1  0  0  0  0
  2 21  1  0  0  0  0
  3 20  1  0  0  0  0
  3 22  1  0  0  0  0
  4  7  1  0  0  0  0
  4 13  1  0  0  0  0
  4 33  1  0  0  0  0
  5 13  2  0  0  0  0
  5 15  1  0  0  0  0
  6 14  2  0  0  0  0
  6 16  1  0  0  0  0
  7  8  1  0  0  0  0
  7  9  1  0  0  0  0
  7 23  1  0  0  0  0
  8 11  1  0  0  0  0
  8 24  1  0  0  0  0
  8 25  1  0  0  0  0
  9 12  1  0  0  0  0
  9 26  1  0  0  0  0
  9 27  1  0  0  0  0
 10 11  1  0  0  0  0
 10 12  1  0  0  0  0
 10 28  1  0  0  0  0
 11 29  1  0  0  0  0
 11 30  1  0  0  0  0
 12 31  1  0  0  0  0
 12 32  1  0  0  0  0
 13 14  1  0  0  0  0
 14 35  1  0  0  0  0
 15 16  1  0  0  0  0
 15 17  2  0  0  0  0
 16 18  2  0  0  0  0
 17 19  1  0  0  0  0
 17 36  1  0  0  0  0
 18 20  1  0  0  0  0
 18 37  1  0  0  0  0
 19 20  2  0  0  0  0
 21 38  1  0  0  0  0
 21 39  1  0  0  0  0
 21 40  1  0  0  0  0
 22 41  1  0  0  0  0
 22 42  1  0  0  0  0
 22 43  1  0  0  0  0
M  END
> <PUBCHEM_COMPOUND_CID>
9796455

> <PUBCHEM_COMPOUND_CANONICALIZED>
1

> <PUBCHEM_CACTVS_COMPLEXITY>
350

> <PUBCHEM_CACTVS_HBOND_ACCEPTOR>
6

> <PUBCHEM_CACTVS_HBOND_DONOR>
2

> <PUBCHEM_CACTVS_ROTATABLE_BOND>
4

> <PUBCHEM_CACTVS_SUBSKEYS>
AAADceB7MAAAAAAAAAAAAAAAAAAAAAAAAAA8YIAAAAAAAACx8AAAHgAQCAAACDzhlgY/9rLIFgCgATZnZACCiC0xMiAB2KA+/JiNduLEuJuUcCpu0BvK6CewUAMAAEAAAgAAQCAAgAAEAACAQAAAAAAAAA==

> <PUBCHEM_IUPAC_OPENEYE_NAME>
4-[(6,7-dimethoxyquinoxalin-2-yl)amino]cyclohexanol

> <PUBCHEM_IUPAC_CAS_NAME>
4-[(6,7-dimethoxy-2-quinoxalinyl)amino]-1-cyclohexanol

> <PUBCHEM_IUPAC_NAME_MARKUP>
4-[(6,7-dimethoxyquinoxalin-2-yl)amino]cyclohexan-1-ol

> <PUBCHEM_IUPAC_NAME>
4-[(6,7-dimethoxyquinoxalin-2-yl)amino]cyclohexan-1-ol

> <PUBCHEM_IUPAC_SYSTEMATIC_NAME>
4-[(6,7-dimethoxyquinoxalin-2-yl)amino]cyclohexan-1-ol

> <PUBCHEM_IUPAC_TRADITIONAL_NAME>
4-[(6,7-dimethoxyquinoxalin-2-yl)amino]cyclohexanol

> <PUBCHEM_IUPAC_INCHI>
InChI=1S/C16H21N3O3/c1-21-14-7-12-13(8-15(14)22-2)19-16(9-17-12)18-10-3-5-11(20)6-4-10/h7-11,20H,3-6H2,1-2H3,(H,18,19)

> <PUBCHEM_IUPAC_INCHIKEY>
CYVRFHRDWQAJGA-UHFFFAOYSA-N

> <PUBCHEM_XLOGP3_AA>
2.1

> <PUBCHEM_EXACT_MASS>
303.15829154

> <PUBCHEM_MOLECULAR_FORMULA>
C16H21N3O3

> <PUBCHEM_MOLECULAR_WEIGHT>
303.36

> <PUBCHEM_SMILES>
COC1=C(C=C2C(=C1)N=CC(=N2)NC3CCC(CC3)O)OC

> <PUBCHEM_OPENEYE_CAN_SMILES>
COC1=C(C=C2C(=C1)N=CC(=N2)NC3CCC(CC3)O)OC

> <PUBCHEM_OPENEYE_ISO_SMILES>
COC1=C(C=C2C(=C1)N=CC(=N2)NC3CCC(CC3)O)OC

> <PUBCHEM_CACTVS_TPSA>
76.5

> <PUBCHEM_MONOISOTOPIC_WEIGHT>
303.15829154

> <PUBCHEM_TOTAL_CHARGE>
0

> <PUBCHEM_HEAVY_ATOM_COUNT>
22

> <PUBCHEM_ATOM_DEF_STEREO_COUNT>
0

> <PUBCHEM_ATOM_UDEF_STEREO_COUNT>
0

> <PUBCHEM_BOND_DEF_STEREO_COUNT>
0

> <PUBCHEM_BOND_UDEF_STEREO_COUNT>
0

> <PUBCHEM_ISOTOPIC_ATOM_COUNT>
0

> <PUBCHEM_COMPONENT_COUNT>
1

> <PUBCHEM_CACTVS_TAUTO_COUNT>
-1

> <PUBCHEM_COORDINATE_TYPE>
1
5
255

> <PUBCHEM_BONDANNOTATIONS>
13  14  8
15  16  8
15  17  8
16  18  8
17  19  8
18  20  8
19  20  8
5  13  8
5  15  8
6  14  8
6  16  8

$$$$
