59604787
  -OEChem-03202504572D

 54 57  0     0  0  0  0  0  0999 V2000
    2.9888    0.0713    0.0000 S   0  0  0  0  0  0  0  0  0  0  0  0
    4.2358   -1.4924    0.0000 F   0  0  0  0  0  0  0  0  0  0  0  0
    8.5426   -2.1388    0.0000 O   0  0  0  0  0  0  0  0  0  0  0  0
    7.3095    1.5983    0.0000 O   0  0  0  0  0  0  0  0  0  0  0  0
    2.8398    1.0601    0.0000 O   0  0  0  0  0  0  0  0  0  0  0  0
    3.1379   -0.9175    0.0000 O   0  0  0  0  0  0  0  0  0  0  0  0
    7.5676   -0.1144    0.0000 N   0  0  0  0  0  0  0  0  0  0  0  0
   13.7205    0.0155    0.0000 N   0  0  0  0  0  0  0  0  0  0  0  0
   14.5808    1.5188    0.0000 N   0  0  0  0  0  0  0  0  0  0  0  0
    8.5426    0.1082    0.0000 C   0  0  0  0  0  0  0  0  0  0  0  0
    7.1338   -1.0153    0.0000 C   0  0  0  0  0  0  0  0  0  0  0  0
    9.3244   -0.5153    0.0000 C   0  0  0  0  0  0  0  0  0  0  0  0
    7.5676   -1.9163    0.0000 C   0  0  0  0  0  0  0  0  0  0  0  0
    9.3244   -1.5153    0.0000 C   0  0  0  0  0  0  0  0  0  0  0  0
    6.9442    0.6675    0.0000 C   0  0  0  0  0  0  0  0  0  0  0  0
    5.9553    0.5184    0.0000 C   0  0  0  0  0  0  0  0  0  0  0  0
   10.2183    0.0193    0.0000 C   0  0  0  0  0  0  0  0  0  0  0  0
   11.1244   -0.4945    0.0000 C   0  0  0  0  0  0  0  0  0  0  0  0
    5.5900   -0.4124    0.0000 C   0  0  0  0  0  0  0  0  0  0  0  0
   10.2183   -2.0500    0.0000 C   0  0  0  0  0  0  0  0  0  0  0  0
    3.9777    0.2203    0.0000 C   0  0  0  0  0  0  0  0  0  0  0  0
   11.1244   -1.5361    0.0000 C   0  0  0  0  0  0  0  0  0  0  0  0
    5.3318    1.3003    0.0000 C   0  0  0  0  0  0  0  0  0  0  0  0
    4.6011   -0.5615    0.0000 C   0  0  0  0  0  0  0  0  0  0  0  0
    4.3430    1.1512    0.0000 C   0  0  0  0  0  0  0  0  0  0  0  0
   11.9885    0.0088    0.0000 C   0  0  0  0  0  0  0  0  0  0  0  0
    6.2135   -1.1943    0.0000 C   0  0  0  0  0  0  0  0  0  0  0  0
    2.0000   -0.0777    0.0000 C   0  0  0  0  0  0  0  0  0  0  0  0
   11.9846    1.0088    0.0000 C   0  0  0  0  0  0  0  0  0  0  0  0
   12.8565   -0.4878    0.0000 C   0  0  0  0  0  0  0  0  0  0  0  0
   12.8487    1.5122    0.0000 C   0  0  0  0  0  0  0  0  0  0  0  0
   13.7167    1.0155    0.0000 C   0  0  0  0  0  0  0  0  0  0  0  0
    9.0273    0.4947    0.0000 H   0  0  0  0  0  0  0  0  0  0  0  0
    8.2736    0.6668    0.0000 H   0  0  0  0  0  0  0  0  0  0  0  0
    6.6490   -0.6288    0.0000 H   0  0  0  0  0  0  0  0  0  0  0  0
    6.6490   -1.4019    0.0000 H   0  0  0  0  0  0  0  0  0  0  0  0
    6.9632   -2.0543    0.0000 H   0  0  0  0  0  0  0  0  0  0  0  0
    7.5676   -2.5363    0.0000 H   0  0  0  0  0  0  0  0  0  0  0  0
   10.2112    0.6393    0.0000 H   0  0  0  0  0  0  0  0  0  0  0  0
   10.2112   -2.6700    0.0000 H   0  0  0  0  0  0  0  0  0  0  0  0
   11.6601   -1.8482    0.0000 H   0  0  0  0  0  0  0  0  0  0  0  0
    5.5583    1.8774    0.0000 H   0  0  0  0  0  0  0  0  0  0  0  0
    3.9564    1.6360    0.0000 H   0  0  0  0  0  0  0  0  0  0  0  0
    5.7287   -1.5808    0.0000 H   0  0  0  0  0  0  0  0  0  0  0  0
    6.6000   -1.6790    0.0000 H   0  0  0  0  0  0  0  0  0  0  0  0
    6.6982   -0.8077    0.0000 H   0  0  0  0  0  0  0  0  0  0  0  0
    1.9076    0.5353    0.0000 H   0  0  0  0  0  0  0  0  0  0  0  0
    1.3869   -0.1701    0.0000 H   0  0  0  0  0  0  0  0  0  0  0  0
    2.0924   -0.6908    0.0000 H   0  0  0  0  0  0  0  0  0  0  0  0
   11.4465    1.3167    0.0000 H   0  0  0  0  0  0  0  0  0  0  0  0
   12.8588   -1.1078    0.0000 H   0  0  0  0  0  0  0  0  0  0  0  0
   12.8464    2.1321    0.0000 H   0  0  0  0  0  0  0  0  0  0  0  0
   15.1189    1.2109    0.0000 H   0  0  0  0  0  0  0  0  0  0  0  0
   14.5784    2.1388    0.0000 H   0  0  0  0  0  0  0  0  0  0  0  0
  1  5  2  0  0  0  0
  1  6  2  0  0  0  0
  1 21  1  0  0  0  0
  1 28  1  0  0  0  0
  2 24  1  0  0  0  0
  3 13  1  0  0  0  0
  3 14  1  0  0  0  0
  4 15  2  0  0  0  0
  7 10  1  0  0  0  0
  7 11  1  0  0  0  0
  7 15  1  0  0  0  0
  8 30  1  0  0  0  0
  8 32  2  0  0  0  0
  9 32  1  0  0  0  0
  9 53  1  0  0  0  0
  9 54  1  0  0  0  0
 10 12  1  0  0  0  0
 10 33  1  0  0  0  0
 10 34  1  0  0  0  0
 11 13  1  0  0  0  0
 11 35  1  0  0  0  0
 11 36  1  0  0  0  0
 12 14  2  0  0  0  0
 12 17  1  0  0  0  0
 13 37  1  0  0  0  0
 13 38  1  0  0  0  0
 14 20  1  0  0  0  0
 15 16  1  0  0  0  0
 16 19  2  0  0  0  0
 16 23  1  0  0  0  0
 17 18  2  0  0  0  0
 17 39  1  0  0  0  0
 18 22  1  0  0  0  0
 18 26  1  0  0  0  0
 19 24  1  0  0  0  0
 19 27  1  0  0  0  0
 20 22  2  0  0  0  0
 20 40  1  0  0  0  0
 21 24  2  0  0  0  0
 21 25  1  0  0  0  0
 22 41  1  0  0  0  0
 23 25  2  0  0  0  0
 23 42  1  0  0  0  0
 25 43  1  0  0  0  0
 26 29  1  0  0  0  0
 26 30  2  0  0  0  0
 27 44  1  0  0  0  0
 27 45  1  0  0  0  0
 27 46  1  0  0  0  0
 28 47  1  0  0  0  0
 28 48  1  0  0  0  0
 28 49  1  0  0  0  0
 29 31  2  0  0  0  0
 29 50  1  0  0  0  0
 30 51  1  0  0  0  0
 31 32  1  0  0  0  0
 31 52  1  0  0  0  0
M  END
> <PUBCHEM_COMPOUND_CID>
59604787

> <PUBCHEM_COMPOUND_CANONICALIZED>
1

> <PUBCHEM_CACTVS_COMPLEXITY>
776

> <PUBCHEM_CACTVS_HBOND_ACCEPTOR>
7

> <PUBCHEM_CACTVS_HBOND_DONOR>
1

> <PUBCHEM_CACTVS_ROTATABLE_BOND>
3

> <PUBCHEM_CACTVS_SUBSKEYS>
AAADceB7OQBAAAAAAAAAAAAAAAAAAAAAAAA8YIAABYAAAAAB0AAAHwQQAAAADATh2g6/t5NIFAqoAjN3dHDCiCk1KjAI2Dk+bNiOJvLktZuHOSjm1hPY6aeYyPCOsAACgAAYAABgAAUAADAAAAAAAAAAAA==

> <PUBCHEM_IUPAC_OPENEYE_NAME>
[7-(6-amino-3-pyridyl)-3,5-dihydro-2H-1,4-benzoxazepin-4-yl]-(3-fluoro-2-methyl-4-methylsulfonyl-phenyl)methanone

> <PUBCHEM_IUPAC_CAS_NAME>
[7-(6-amino-3-pyridinyl)-3,5-dihydro-2H-1,4-benzoxazepin-4-yl]-(3-fluoro-2-methyl-4-methylsulfonylphenyl)methanone

> <PUBCHEM_IUPAC_NAME_MARKUP>
[7-(6-aminopyridin-3-yl)-3,5-dihydro-2<I>H</I>-1,4-benzoxazepin-4-yl]-(3-fluoro-2-methyl-4-methylsulfonylphenyl)methanone

> <PUBCHEM_IUPAC_NAME>
[7-(6-aminopyridin-3-yl)-3,5-dihydro-2H-1,4-benzoxazepin-4-yl]-(3-fluoro-2-methyl-4-methylsulfonylphenyl)methanone

> <PUBCHEM_IUPAC_SYSTEMATIC_NAME>
[7-(6-azanylpyridin-3-yl)-3,5-dihydro-2H-1,4-benzoxazepin-4-yl]-(3-fluoranyl-2-methyl-4-methylsulfonyl-phenyl)methanone

> <PUBCHEM_IUPAC_TRADITIONAL_NAME>
[7-(6-amino-3-pyridyl)-3,5-dihydro-2H-1,4-benzoxazepin-4-yl]-(3-fluoro-4-mesyl-2-methyl-phenyl)methanone

> <PUBCHEM_IUPAC_INCHI>
InChI=1S/C23H22FN3O4S/c1-14-18(5-7-20(22(14)24)32(2,29)30)23(28)27-9-10-31-19-6-3-15(11-17(19)13-27)16-4-8-21(25)26-12-16/h3-8,11-12H,9-10,13H2,1-2H3,(H2,25,26)

> <PUBCHEM_IUPAC_INCHIKEY>
LNFBAYSBVQBKFR-UHFFFAOYSA-N

> <PUBCHEM_XLOGP3_AA>
2.5

> <PUBCHEM_EXACT_MASS>
455.13150553

> <PUBCHEM_MOLECULAR_FORMULA>
C23H22FN3O4S

> <PUBCHEM_MOLECULAR_WEIGHT>
455.5

> <PUBCHEM_SMILES>
CC1=C(C=CC(=C1F)S(=O)(=O)C)C(=O)N2CCOC3=C(C2)C=C(C=C3)C4=CN=C(C=C4)N

> <PUBCHEM_OPENEYE_CAN_SMILES>
CC1=C(C=CC(=C1F)S(=O)(=O)C)C(=O)N2CCOC3=C(C2)C=C(C=C3)C4=CN=C(C=C4)N

> <PUBCHEM_OPENEYE_ISO_SMILES>
CC1=C(C=CC(=C1F)S(=O)(=O)C)C(=O)N2CCOC3=C(C2)C=C(C=C3)C4=CN=C(C=C4)N

> <PUBCHEM_CACTVS_TPSA>
111

> <PUBCHEM_MONOISOTOPIC_WEIGHT>
455.13150553

> <PUBCHEM_TOTAL_CHARGE>
0

> <PUBCHEM_HEAVY_ATOM_COUNT>
32

> <PUBCHEM_ATOM_DEF_STEREO_COUNT>
0

> <PUBCHEM_ATOM_UDEF_STEREO_COUNT>
0

> <PUBCHEM_BOND_DEF_STEREO_COUNT>
0

> <PUBCHEM_BOND_UDEF_STEREO_COUNT>
0

> <PUBCHEM_ISOTOPIC_ATOM_COUNT>
0

> <PUBCHEM_COMPONENT_COUNT>
1

> <PUBCHEM_CACTVS_TAUTO_COUNT>
-1

> <PUBCHEM_COORDINATE_TYPE>
1
5
255

> <PUBCHEM_BONDANNOTATIONS>
12  14  8
12  17  8
14  20  8
16  19  8
16  23  8
17  18  8
18  22  8
19  24  8
20  22  8
21  24  8
21  25  8
23  25  8
26  29  8
26  30  8
29  31  8
31  32  8
8  30  8
8  32  8

$$$$
