11690518
  -OEChem-03202506072D

 45 48  0     0  0  0  0  0  0999 V2000
    3.0000    0.7500    0.0000 F   0  0  0  0  0  0  0  0  0  0  0  0
    3.0000    5.7500    0.0000 F   0  0  0  0  0  0  0  0  0  0  0  0
    2.0000    4.7500    0.0000 F   0  0  0  0  0  0  0  0  0  0  0  0
    4.0000    4.7500    0.0000 F   0  0  0  0  0  0  0  0  0  0  0  0
    3.8660    0.2500    0.0000 O   0  0  0  0  0  0  0  0  0  0  0  0
    7.9939   -4.7500    0.0000 N   0  0  0  0  0  0  0  0  0  0  0  0
    7.4103   -5.5547    0.0000 N   0  0  0  0  0  0  0  0  0  0  0  0
    5.5981   -5.7500    0.0000 N   0  0  0  0  0  0  0  0  0  0  0  0
    5.5981    0.2500    0.0000 N   0  0  0  0  0  0  0  0  0  0  0  0
    4.7320    1.7500    0.0000 N   0  0  0  0  0  0  0  0  0  0  0  0
    7.7210   -2.9947    0.0000 N   0  0  0  0  0  0  0  0  0  0  0  0
    5.5981   -3.7500    0.0000 C   0  0  0  0  0  0  0  0  0  0  0  0
    6.4641   -4.2500    0.0000 C   0  0  0  0  0  0  0  0  0  0  0  0
    5.5981   -2.7500    0.0000 C   0  0  0  0  0  0  0  0  0  0  0  0
    6.4641   -5.2500    0.0000 C   0  0  0  0  0  0  0  0  0  0  0  0
    7.4103   -3.9453    0.0000 C   0  0  0  0  0  0  0  0  0  0  0  0
    6.4641   -2.2500    0.0000 C   0  0  0  0  0  0  0  0  0  0  0  0
    4.7320   -2.2500    0.0000 C   0  0  0  0  0  0  0  0  0  0  0  0
    4.7320   -4.2500    0.0000 C   0  0  0  0  0  0  0  0  0  0  0  0
    5.5981   -0.7500    0.0000 C   0  0  0  0  0  0  0  0  0  0  0  0
    6.4641   -1.2500    0.0000 C   0  0  0  0  0  0  0  0  0  0  0  0
    4.7320   -1.2500    0.0000 C   0  0  0  0  0  0  0  0  0  0  0  0
    4.7320   -5.2500    0.0000 C   0  0  0  0  0  0  0  0  0  0  0  0
    3.8660    2.2500    0.0000 C   0  0  0  0  0  0  0  0  0  0  0  0
    3.0000    3.7500    0.0000 C   0  0  0  0  0  0  0  0  0  0  0  0
    3.8660    3.2500    0.0000 C   0  0  0  0  0  0  0  0  0  0  0  0
    4.7320    0.7500    0.0000 C   0  0  0  0  0  0  0  0  0  0  0  0
    3.0000    1.7500    0.0000 C   0  0  0  0  0  0  0  0  0  0  0  0
    2.1340    3.2500    0.0000 C   0  0  0  0  0  0  0  0  0  0  0  0
    2.1340    2.2500    0.0000 C   0  0  0  0  0  0  0  0  0  0  0  0
    3.0000    4.7500    0.0000 C   0  0  0  0  0  0  0  0  0  0  0  0
    7.0010   -2.5600    0.0000 H   0  0  0  0  0  0  0  0  0  0  0  0
    4.1951   -2.5600    0.0000 H   0  0  0  0  0  0  0  0  0  0  0  0
    4.1951   -3.9400    0.0000 H   0  0  0  0  0  0  0  0  0  0  0  0
    7.0010   -0.9400    0.0000 H   0  0  0  0  0  0  0  0  0  0  0  0
    4.1951   -0.9400    0.0000 H   0  0  0  0  0  0  0  0  0  0  0  0
    8.6139   -4.7500    0.0000 H   0  0  0  0  0  0  0  0  0  0  0  0
    4.1951   -5.5600    0.0000 H   0  0  0  0  0  0  0  0  0  0  0  0
    6.1350    0.5600    0.0000 H   0  0  0  0  0  0  0  0  0  0  0  0
    4.4030    3.5600    0.0000 H   0  0  0  0  0  0  0  0  0  0  0  0
    5.2690    2.0600    0.0000 H   0  0  0  0  0  0  0  0  0  0  0  0
    8.3277   -2.8669    0.0000 H   0  0  0  0  0  0  0  0  0  0  0  0
    7.3069   -2.5333    0.0000 H   0  0  0  0  0  0  0  0  0  0  0  0
    1.5970    3.5600    0.0000 H   0  0  0  0  0  0  0  0  0  0  0  0
    1.5970    1.9400    0.0000 H   0  0  0  0  0  0  0  0  0  0  0  0
  1 28  1  0  0  0  0
  2 31  1  0  0  0  0
  3 31  1  0  0  0  0
  4 31  1  0  0  0  0
  5 27  2  0  0  0  0
  6  7  1  0  0  0  0
  6 16  1  0  0  0  0
  6 37  1  0  0  0  0
  7 15  2  0  0  0  0
  8 15  1  0  0  0  0
  8 23  2  0  0  0  0
  9 20  1  0  0  0  0
  9 27  1  0  0  0  0
  9 39  1  0  0  0  0
 10 24  1  0  0  0  0
 10 27  1  0  0  0  0
 10 41  1  0  0  0  0
 11 16  1  0  0  0  0
 11 42  1  0  0  0  0
 11 43  1  0  0  0  0
 12 13  1  0  0  0  0
 12 14  1  0  0  0  0
 12 19  2  0  0  0  0
 13 15  1  0  0  0  0
 13 16  2  0  0  0  0
 14 17  2  0  0  0  0
 14 18  1  0  0  0  0
 17 21  1  0  0  0  0
 17 32  1  0  0  0  0
 18 22  2  0  0  0  0
 18 33  1  0  0  0  0
 19 23  1  0  0  0  0
 19 34  1  0  0  0  0
 20 21  2  0  0  0  0
 20 22  1  0  0  0  0
 21 35  1  0  0  0  0
 22 36  1  0  0  0  0
 23 38  1  0  0  0  0
 24 26  1  0  0  0  0
 24 28  2  0  0  0  0
 25 26  2  0  0  0  0
 25 29  1  0  0  0  0
 25 31  1  0  0  0  0
 26 40  1  0  0  0  0
 28 30  1  0  0  0  0
 29 30  2  0  0  0  0
 29 44  1  0  0  0  0
 30 45  1  0  0  0  0
M  END
> <PUBCHEM_COMPOUND_CID>
11690518

> <PUBCHEM_COMPOUND_CANONICALIZED>
1

> <PUBCHEM_CACTVS_COMPLEXITY>
629

> <PUBCHEM_CACTVS_HBOND_ACCEPTOR>
8

> <PUBCHEM_CACTVS_HBOND_DONOR>
4

> <PUBCHEM_CACTVS_ROTATABLE_BOND>
3

> <PUBCHEM_CACTVS_SUBSKEYS>
AAADccB7ocAAAAAAAAAAAAAAAAAAAWAAAAA8YIAAAAAAAFgB/AAAHwAYAAAADAjBGxw98N7rEACqAjZndACShCuxAqAd+SA4ZJiIKGLA2dGEpAh4nALIyCcQgMAOiAAAQAAAAAAQAACAAAAAAAAAAAAAAA==

> <PUBCHEM_IUPAC_OPENEYE_NAME>
1-[4-(3-amino-2H-pyrazolo[3,4-b]pyridin-4-yl)phenyl]-3-[2-fluoro-5-(trifluoromethyl)phenyl]urea

> <PUBCHEM_IUPAC_CAS_NAME>
1-[4-(3-amino-2H-pyrazolo[3,4-b]pyridin-4-yl)phenyl]-3-[2-fluoro-5-(trifluoromethyl)phenyl]urea

> <PUBCHEM_IUPAC_NAME_MARKUP>
1-[4-(3-amino-2<I>H</I>-pyrazolo[3,4-b]pyridin-4-yl)phenyl]-3-[2-fluoro-5-(trifluoromethyl)phenyl]urea

> <PUBCHEM_IUPAC_NAME>
1-[4-(3-amino-2H-pyrazolo[3,4-b]pyridin-4-yl)phenyl]-3-[2-fluoro-5-(trifluoromethyl)phenyl]urea

> <PUBCHEM_IUPAC_SYSTEMATIC_NAME>
1-[4-(3-azanyl-2H-pyrazolo[3,4-b]pyridin-4-yl)phenyl]-3-[2-fluoranyl-5-(trifluoromethyl)phenyl]urea

> <PUBCHEM_IUPAC_TRADITIONAL_NAME>
1-[4-(3-amino-2H-pyrazolo[3,4-b]pyridin-4-yl)phenyl]-3-[2-fluoro-5-(trifluoromethyl)phenyl]urea

> <PUBCHEM_IUPAC_INCHI>
InChI=1S/C20H14F4N6O/c21-14-6-3-11(20(22,23)24)9-15(14)28-19(31)27-12-4-1-10(2-5-12)13-7-8-26-18-16(13)17(25)29-30-18/h1-9H,(H2,27,28,31)(H3,25,26,29,30)

> <PUBCHEM_IUPAC_INCHIKEY>
DBXOMQJZSQLQED-UHFFFAOYSA-N

> <PUBCHEM_XLOGP3_AA>
3.6

> <PUBCHEM_EXACT_MASS>
430.11652174

> <PUBCHEM_MOLECULAR_FORMULA>
C20H14F4N6O

> <PUBCHEM_MOLECULAR_WEIGHT>
430.4

> <PUBCHEM_SMILES>
C1=CC(=CC=C1C2=CC=NC3=NNC(=C23)N)NC(=O)NC4=C(C=CC(=C4)C(F)(F)F)F

> <PUBCHEM_OPENEYE_CAN_SMILES>
C1=CC(=CC=C1C2=CC=NC3=NNC(=C23)N)NC(=O)NC4=C(C=CC(=C4)C(F)(F)F)F

> <PUBCHEM_OPENEYE_ISO_SMILES>
C1=CC(=CC=C1C2=CC=NC3=NNC(=C23)N)NC(=O)NC4=C(C=CC(=C4)C(F)(F)F)F

> <PUBCHEM_CACTVS_TPSA>
109

> <PUBCHEM_MONOISOTOPIC_WEIGHT>
430.11652174

> <PUBCHEM_TOTAL_CHARGE>
0

> <PUBCHEM_HEAVY_ATOM_COUNT>
31

> <PUBCHEM_ATOM_DEF_STEREO_COUNT>
0

> <PUBCHEM_ATOM_UDEF_STEREO_COUNT>
0

> <PUBCHEM_BOND_DEF_STEREO_COUNT>
0

> <PUBCHEM_BOND_UDEF_STEREO_COUNT>
0

> <PUBCHEM_ISOTOPIC_ATOM_COUNT>
0

> <PUBCHEM_COMPONENT_COUNT>
1

> <PUBCHEM_CACTVS_TAUTO_COUNT>
-1

> <PUBCHEM_COORDINATE_TYPE>
1
5
255

> <PUBCHEM_BONDANNOTATIONS>
12  13  8
12  19  8
13  15  8
13  16  8
14  17  8
14  18  8
17  21  8
18  22  8
19  23  8
20  21  8
20  22  8
24  26  8
24  28  8
25  26  8
25  29  8
28  30  8
29  30  8
6  16  8
6  7  8
7  15  8
8  15  8
8  23  8

$$$$
