49830730
  -OEChem-03202500462D

 58 60  0     1  0  0  0  0  0999 V2000
   11.0190    2.7911    0.0000 O   0  0  0  0  0  0  0  0  0  0  0  0
    8.6870    3.4160    0.0000 O   0  0  0  0  0  0  0  0  0  0  0  0
    2.8660   -1.9160    0.0000 O   0  0  0  0  0  0  0  0  0  0  0  0
    4.5981   -2.9160    0.0000 O   0  0  0  0  0  0  0  0  0  0  0  0
   10.3941    0.4592    0.0000 N   0  0  0  0  0  0  0  0  0  0  0  0
    8.0622    1.0840    0.0000 N   0  0  0  0  0  0  0  0  0  0  0  0
    6.3301    1.0840    0.0000 N   0  0  0  0  0  0  0  0  0  0  0  0
    4.5981    1.0840    0.0000 N   0  0  0  0  0  0  0  0  0  0  0  0
    5.4641    2.5840    0.0000 N   0  0  0  0  0  0  0  0  0  0  0  0
   11.8941   -0.4068    0.0000 C   0  0  0  0  0  0  0  0  0  0  0  0
   11.3941    0.4592    0.0000 C   0  0  3  0  0  0  0  0  0  0  0  0
   12.3941   -1.2729    0.0000 C   0  0  0  0  0  0  0  0  0  0  0  0
   12.7602    0.0932    0.0000 C   0  0  0  0  0  0  0  0  0  0  0  0
   11.0281   -0.9068    0.0000 C   0  0  0  0  0  0  0  0  0  0  0  0
   11.8941    1.3252    0.0000 C   0  0  0  0  0  0  0  0  0  0  0  0
    9.8941    1.3252    0.0000 C   0  0  0  0  0  0  0  0  0  0  0  0
    8.9282    1.5840    0.0000 C   0  0  0  0  0  0  0  0  0  0  0  0
   10.1529    2.2911    0.0000 C   0  0  0  0  0  0  0  0  0  0  0  0
    9.1870    2.5500    0.0000 C   0  0  0  0  0  0  0  0  0  0  0  0
    7.1962    1.5840    0.0000 C   0  0  0  0  0  0  0  0  0  0  0  0
    7.1962    2.5840    0.0000 C   0  0  0  0  0  0  0  0  0  0  0  0
    5.4641    1.5840    0.0000 C   0  0  0  0  0  0  0  0  0  0  0  0
    6.3301    3.0840    0.0000 C   0  0  0  0  0  0  0  0  0  0  0  0
    4.5981    0.0840    0.0000 C   0  0  0  0  0  0  0  0  0  0  0  0
    3.7320   -0.4160    0.0000 C   0  0  0  0  0  0  0  0  0  0  0  0
    5.4641   -0.4160    0.0000 C   0  0  0  0  0  0  0  0  0  0  0  0
    3.7320   -1.4160    0.0000 C   0  0  0  0  0  0  0  0  0  0  0  0
    4.5981   -1.9160    0.0000 C   0  0  0  0  0  0  0  0  0  0  0  0
    5.4641   -1.4160    0.0000 C   0  0  0  0  0  0  0  0  0  0  0  0
    2.0000   -1.4160    0.0000 C   0  0  0  0  0  0  0  0  0  0  0  0
    5.4641   -3.4160    0.0000 C   0  0  0  0  0  0  0  0  0  0  0  0
   11.0841    0.9961    0.0000 H   0  0  0  0  0  0  0  0  0  0  0  0
   11.8572   -1.5829    0.0000 H   0  0  0  0  0  0  0  0  0  0  0  0
   12.7041   -1.8098    0.0000 H   0  0  0  0  0  0  0  0  0  0  0  0
   12.9311   -0.9629    0.0000 H   0  0  0  0  0  0  0  0  0  0  0  0
   13.0702   -0.4438    0.0000 H   0  0  0  0  0  0  0  0  0  0  0  0
   13.2971    0.4032    0.0000 H   0  0  0  0  0  0  0  0  0  0  0  0
   12.4502    0.6301    0.0000 H   0  0  0  0  0  0  0  0  0  0  0  0
   10.7181   -0.3699    0.0000 H   0  0  0  0  0  0  0  0  0  0  0  0
   10.4912   -1.2168    0.0000 H   0  0  0  0  0  0  0  0  0  0  0  0
   11.3381   -1.4438    0.0000 H   0  0  0  0  0  0  0  0  0  0  0  0
   10.0841   -0.0778    0.0000 H   0  0  0  0  0  0  0  0  0  0  0  0
   12.4311    1.0152    0.0000 H   0  0  0  0  0  0  0  0  0  0  0  0
   12.2041    1.8621    0.0000 H   0  0  0  0  0  0  0  0  0  0  0  0
   11.3572    1.6352    0.0000 H   0  0  0  0  0  0  0  0  0  0  0  0
    8.0622    0.4640    0.0000 H   0  0  0  0  0  0  0  0  0  0  0  0
    7.7331    2.8940    0.0000 H   0  0  0  0  0  0  0  0  0  0  0  0
    6.3301    3.7040    0.0000 H   0  0  0  0  0  0  0  0  0  0  0  0
    4.0611    1.3940    0.0000 H   0  0  0  0  0  0  0  0  0  0  0  0
    3.1951   -0.1060    0.0000 H   0  0  0  0  0  0  0  0  0  0  0  0
    6.0010   -0.1060    0.0000 H   0  0  0  0  0  0  0  0  0  0  0  0
    6.0010   -1.7260    0.0000 H   0  0  0  0  0  0  0  0  0  0  0  0
    2.3100   -0.8790    0.0000 H   0  0  0  0  0  0  0  0  0  0  0  0
    1.4631   -1.1060    0.0000 H   0  0  0  0  0  0  0  0  0  0  0  0
    1.6900   -1.9529    0.0000 H   0  0  0  0  0  0  0  0  0  0  0  0
    5.1541   -3.9529    0.0000 H   0  0  0  0  0  0  0  0  0  0  0  0
    6.0010   -3.7260    0.0000 H   0  0  0  0  0  0  0  0  0  0  0  0
    5.7741   -2.8790    0.0000 H   0  0  0  0  0  0  0  0  0  0  0  0
  1 18  2  0  0  0  0
  2 19  2  0  0  0  0
  3 27  1  0  0  0  0
  3 30  1  0  0  0  0
  4 28  1  0  0  0  0
  4 31  1  0  0  0  0
  5 11  1  0  0  0  0
  5 16  1  0  0  0  0
  5 42  1  0  0  0  0
  6 17  1  0  0  0  0
  6 20  1  0  0  0  0
  6 46  1  0  0  0  0
  7 20  2  0  0  0  0
  7 22  1  0  0  0  0
  8 22  1  0  0  0  0
  8 24  1  0  0  0  0
  8 49  1  0  0  0  0
  9 22  2  0  0  0  0
  9 23  1  0  0  0  0
 10 11  1  0  0  0  0
 10 12  1  0  0  0  0
 10 13  1  0  0  0  0
 10 14  1  0  0  0  0
 11 15  1  0  0  0  0
 11 32  1  0  0  0  0
 12 33  1  0  0  0  0
 12 34  1  0  0  0  0
 12 35  1  0  0  0  0
 13 36  1  0  0  0  0
 13 37  1  0  0  0  0
 13 38  1  0  0  0  0
 14 39  1  0  0  0  0
 14 40  1  0  0  0  0
 14 41  1  0  0  0  0
 15 43  1  0  0  0  0
 15 44  1  0  0  0  0
 15 45  1  0  0  0  0
 16 17  2  0  0  0  0
 16 18  1  0  0  0  0
 17 19  1  0  0  0  0
 18 19  1  0  0  0  0
 20 21  1  0  0  0  0
 21 23  2  0  0  0  0
 21 47  1  0  0  0  0
 23 48  1  0  0  0  0
 24 25  2  0  0  0  0
 24 26  1  0  0  0  0
 25 27  1  0  0  0  0
 25 50  1  0  0  0  0
 26 29  2  0  0  0  0
 26 51  1  0  0  0  0
 27 28  2  0  0  0  0
 28 29  1  0  0  0  0
 29 52  1  0  0  0  0
 30 53  1  0  0  0  0
 30 54  1  0  0  0  0
 30 55  1  0  0  0  0
 31 56  1  0  0  0  0
 31 57  1  0  0  0  0
 31 58  1  0  0  0  0
M  END
> <PUBCHEM_COMPOUND_CID>
49830730

> <PUBCHEM_COMPOUND_CANONICALIZED>
1

> <PUBCHEM_CACTVS_COMPLEXITY>
705

> <PUBCHEM_CACTVS_HBOND_ACCEPTOR>
9

> <PUBCHEM_CACTVS_HBOND_DONOR>
3

> <PUBCHEM_CACTVS_ROTATABLE_BOND>
9

> <PUBCHEM_CACTVS_SUBSKEYS>
AAADceB7uAAAAAAAAAAAAAAAAABAAAAAAAA8QAAAAAAAAAABwAAAHgAQAAAADizBkgY/9pbIFACoALZ3ZACCiCkxIqAJ2KG+7NiNLqrE+fuENCpu0BvK6WewUAMJAEAAAgAAQAAAgAAEAACAAAAAAAAAAA==

> <PUBCHEM_IUPAC_OPENEYE_NAME>
3-[[2-(3,4-dimethoxyanilino)pyrimidin-4-yl]amino]-4-(1,2,2-trimethylpropylamino)cyclobut-3-ene-1,2-dione

> <PUBCHEM_IUPAC_CAS_NAME>
3-[[2-(3,4-dimethoxyanilino)-4-pyrimidinyl]amino]-4-(3,3-dimethylbutan-2-ylamino)cyclobut-3-ene-1,2-dione

> <PUBCHEM_IUPAC_NAME_MARKUP>
3-[[2-(3,4-dimethoxyanilino)pyrimidin-4-yl]amino]-4-(3,3-dimethylbutan-2-ylamino)cyclobut-3-ene-1,2-dione

> <PUBCHEM_IUPAC_NAME>
3-[[2-(3,4-dimethoxyanilino)pyrimidin-4-yl]amino]-4-(3,3-dimethylbutan-2-ylamino)cyclobut-3-ene-1,2-dione

> <PUBCHEM_IUPAC_SYSTEMATIC_NAME>
3-[[2-[(3,4-dimethoxyphenyl)amino]pyrimidin-4-yl]amino]-4-(3,3-dimethylbutan-2-ylamino)cyclobut-3-ene-1,2-dione

> <PUBCHEM_IUPAC_TRADITIONAL_NAME>
3-[[2-(3,4-dimethoxyanilino)pyrimidin-4-yl]amino]-4-(1,2,2-trimethylpropylamino)cyclobut-3-ene-1,2-quinone

> <PUBCHEM_IUPAC_INCHI>
InChI=1S/C22H27N5O4/c1-12(22(2,3)4)24-17-18(20(29)19(17)28)26-16-9-10-23-21(27-16)25-13-7-8-14(30-5)15(11-13)31-6/h7-12,24H,1-6H3,(H2,23,25,26,27)

> <PUBCHEM_IUPAC_INCHIKEY>
RKKIDHHGKNGTQI-UHFFFAOYSA-N

> <PUBCHEM_XLOGP3_AA>
4.1

> <PUBCHEM_EXACT_MASS>
425.20630436

> <PUBCHEM_MOLECULAR_FORMULA>
C22H27N5O4

> <PUBCHEM_MOLECULAR_WEIGHT>
425.5

> <PUBCHEM_SMILES>
CC(C(C)(C)C)NC1=C(C(=O)C1=O)NC2=NC(=NC=C2)NC3=CC(=C(C=C3)OC)OC

> <PUBCHEM_OPENEYE_CAN_SMILES>
CC(C(C)(C)C)NC1=C(C(=O)C1=O)NC2=NC(=NC=C2)NC3=CC(=C(C=C3)OC)OC

> <PUBCHEM_OPENEYE_ISO_SMILES>
CC(C(C)(C)C)NC1=C(C(=O)C1=O)NC2=NC(=NC=C2)NC3=CC(=C(C=C3)OC)OC

> <PUBCHEM_CACTVS_TPSA>
114

> <PUBCHEM_MONOISOTOPIC_WEIGHT>
425.20630436

> <PUBCHEM_TOTAL_CHARGE>
0

> <PUBCHEM_HEAVY_ATOM_COUNT>
31

> <PUBCHEM_ATOM_DEF_STEREO_COUNT>
0

> <PUBCHEM_ATOM_UDEF_STEREO_COUNT>
1

> <PUBCHEM_BOND_DEF_STEREO_COUNT>
0

> <PUBCHEM_BOND_UDEF_STEREO_COUNT>
0

> <PUBCHEM_ISOTOPIC_ATOM_COUNT>
0

> <PUBCHEM_COMPONENT_COUNT>
1

> <PUBCHEM_CACTVS_TAUTO_COUNT>
-1

> <PUBCHEM_COORDINATE_TYPE>
1
5
255

> <PUBCHEM_BONDANNOTATIONS>
11  15  3
16  17  8
16  18  8
17  19  8
18  19  8
20  21  8
21  23  8
24  25  8
24  26  8
25  27  8
26  29  8
27  28  8
28  29  8
7  20  8
7  22  8
9  22  8
9  23  8

$$$$
