14802484
  -OEChem-03202506162D

 52 54  0     0  0  0  0  0  0999 V2000
    4.5981   -2.7327    0.0000 S   0  0  0  0  0  0  0  0  0  0  0  0
    3.5981   -2.7327    0.0000 O   0  0  0  0  0  0  0  0  0  0  0  0
    5.5981   -2.7327    0.0000 O   0  0  0  0  0  0  0  0  0  0  0  0
    2.0000    4.7673    0.0000 O   0  0  0  0  0  0  0  0  0  0  0  0
    3.7320    4.7673    0.0000 O   0  0  0  0  0  0  0  0  0  0  0  0
    4.5981    0.2673    0.0000 N   0  0  0  0  0  0  0  0  0  0  0  0
    4.5981   -1.7327    0.0000 N   0  0  0  0  0  0  0  0  0  0  0  0
    7.2641   -5.2535    0.0000 N   0  0  0  0  0  0  0  0  0  0  0  0
    5.4641   -0.2327    0.0000 C   0  0  0  0  0  0  0  0  0  0  0  0
    3.7320   -0.2327    0.0000 C   0  0  0  0  0  0  0  0  0  0  0  0
    5.4641   -1.2327    0.0000 C   0  0  0  0  0  0  0  0  0  0  0  0
    3.7320   -1.2327    0.0000 C   0  0  0  0  0  0  0  0  0  0  0  0
    4.5981    1.2673    0.0000 C   0  0  0  0  0  0  0  0  0  0  0  0
    3.7320    1.7673    0.0000 C   0  0  0  0  0  0  0  0  0  0  0  0
    4.5981   -3.7327    0.0000 C   0  0  0  0  0  0  0  0  0  0  0  0
    3.7320    2.7673    0.0000 C   0  0  0  0  0  0  0  0  0  0  0  0
    5.4641   -4.2327    0.0000 C   0  0  0  0  0  0  0  0  0  0  0  0
    2.8660    3.2673    0.0000 C   0  0  0  0  0  0  0  0  0  0  0  0
    3.7320   -4.2327    0.0000 C   0  0  0  0  0  0  0  0  0  0  0  0
    5.4641   -5.2327    0.0000 C   0  0  0  0  0  0  0  0  0  0  0  0
    3.7320   -5.2327    0.0000 C   0  0  0  0  0  0  0  0  0  0  0  0
    6.3580   -3.6980    0.0000 C   0  0  0  0  0  0  0  0  0  0  0  0
    4.5981   -5.7327    0.0000 C   0  0  0  0  0  0  0  0  0  0  0  0
    2.8660    4.2673    0.0000 C   0  0  0  0  0  0  0  0  0  0  0  0
    6.3580   -5.7673    0.0000 C   0  0  0  0  0  0  0  0  0  0  0  0
    7.2641   -4.2118    0.0000 C   0  0  0  0  0  0  0  0  0  0  0  0
    2.0000    5.7673    0.0000 C   0  0  0  0  0  0  0  0  0  0  0  0
    6.0747   -0.3403    0.0000 H   0  0  0  0  0  0  0  0  0  0  0  0
    5.6762    0.3499    0.0000 H   0  0  0  0  0  0  0  0  0  0  0  0
    3.5200    0.3499    0.0000 H   0  0  0  0  0  0  0  0  0  0  0  0
    3.1215   -0.3403    0.0000 H   0  0  0  0  0  0  0  0  0  0  0  0
    5.6762   -1.8153    0.0000 H   0  0  0  0  0  0  0  0  0  0  0  0
    6.0747   -1.1250    0.0000 H   0  0  0  0  0  0  0  0  0  0  0  0
    3.1215   -1.1250    0.0000 H   0  0  0  0  0  0  0  0  0  0  0  0
    3.5200   -1.8153    0.0000 H   0  0  0  0  0  0  0  0  0  0  0  0
    5.2087    1.1597    0.0000 H   0  0  0  0  0  0  0  0  0  0  0  0
    4.8101    1.8499    0.0000 H   0  0  0  0  0  0  0  0  0  0  0  0
    3.1215    1.8750    0.0000 H   0  0  0  0  0  0  0  0  0  0  0  0
    3.5200    1.1847    0.0000 H   0  0  0  0  0  0  0  0  0  0  0  0
    4.3426    2.6597    0.0000 H   0  0  0  0  0  0  0  0  0  0  0  0
    3.9441    3.3499    0.0000 H   0  0  0  0  0  0  0  0  0  0  0  0
    2.2554    3.3750    0.0000 H   0  0  0  0  0  0  0  0  0  0  0  0
    2.6540    2.6847    0.0000 H   0  0  0  0  0  0  0  0  0  0  0  0
    3.1951   -3.9227    0.0000 H   0  0  0  0  0  0  0  0  0  0  0  0
    3.1951   -5.5427    0.0000 H   0  0  0  0  0  0  0  0  0  0  0  0
    6.3509   -3.0780    0.0000 H   0  0  0  0  0  0  0  0  0  0  0  0
    4.5981   -6.3527    0.0000 H   0  0  0  0  0  0  0  0  0  0  0  0
    6.3509   -6.3873    0.0000 H   0  0  0  0  0  0  0  0  0  0  0  0
    7.7998   -3.8998    0.0000 H   0  0  0  0  0  0  0  0  0  0  0  0
    2.6200    5.7673    0.0000 H   0  0  0  0  0  0  0  0  0  0  0  0
    2.0000    6.3873    0.0000 H   0  0  0  0  0  0  0  0  0  0  0  0
    1.3800    5.7673    0.0000 H   0  0  0  0  0  0  0  0  0  0  0  0
  1  2  2  0  0  0  0
  1  3  2  0  0  0  0
  1  7  1  0  0  0  0
  1 15  1  0  0  0  0
  4 24  1  0  0  0  0
  4 27  1  0  0  0  0
  5 24  2  0  0  0  0
  6  9  1  0  0  0  0
  6 10  1  0  0  0  0
  6 13  1  0  0  0  0
  7 11  1  0  0  0  0
  7 12  1  0  0  0  0
  8 25  2  0  0  0  0
  8 26  1  0  0  0  0
  9 11  1  0  0  0  0
  9 28  1  0  0  0  0
  9 29  1  0  0  0  0
 10 12  1  0  0  0  0
 10 30  1  0  0  0  0
 10 31  1  0  0  0  0
 11 32  1  0  0  0  0
 11 33  1  0  0  0  0
 12 34  1  0  0  0  0
 12 35  1  0  0  0  0
 13 14  1  0  0  0  0
 13 36  1  0  0  0  0
 13 37  1  0  0  0  0
 14 16  1  0  0  0  0
 14 38  1  0  0  0  0
 14 39  1  0  0  0  0
 15 17  1  0  0  0  0
 15 19  2  0  0  0  0
 16 18  1  0  0  0  0
 16 40  1  0  0  0  0
 16 41  1  0  0  0  0
 17 20  2  0  0  0  0
 17 22  1  0  0  0  0
 18 24  1  0  0  0  0
 18 42  1  0  0  0  0
 18 43  1  0  0  0  0
 19 21  1  0  0  0  0
 19 44  1  0  0  0  0
 20 23  1  0  0  0  0
 20 25  1  0  0  0  0
 21 23  2  0  0  0  0
 21 45  1  0  0  0  0
 22 26  2  0  0  0  0
 22 46  1  0  0  0  0
 23 47  1  0  0  0  0
 25 48  1  0  0  0  0
 26 49  1  0  0  0  0
 27 50  1  0  0  0  0
 27 51  1  0  0  0  0
 27 52  1  0  0  0  0
M  END
> <PUBCHEM_COMPOUND_CID>
14802484

> <PUBCHEM_COMPOUND_CANONICALIZED>
1

> <PUBCHEM_CACTVS_COMPLEXITY>
584

> <PUBCHEM_CACTVS_HBOND_ACCEPTOR>
7

> <PUBCHEM_CACTVS_HBOND_DONOR>
0

> <PUBCHEM_CACTVS_ROTATABLE_BOND>
8

> <PUBCHEM_CACTVS_SUBSKEYS>
AAADceB7OABAAAAAAAAAAAAAAAAAAAAAAAA8WIAAAAAAAACx8AAAHgQAQAAADADB2gY+idMIFAKoAjD3THDCgDAxAiAI2Dk4ZJgIYPLAkZGUIAhkgADIyAeYkYIOgAAAgAAUAAAAAAEAACgAAAAAAAAAAA==

> <PUBCHEM_IUPAC_OPENEYE_NAME>
methyl 5-[4-(5-isoquinolylsulfonyl)piperazin-1-yl]pentanoate

> <PUBCHEM_IUPAC_CAS_NAME>
5-[4-(5-isoquinolinylsulfonyl)-1-piperazinyl]pentanoic acid methyl ester

> <PUBCHEM_IUPAC_NAME_MARKUP>
methyl 5-(4-isoquinolin-5-ylsulfonylpiperazin-1-yl)pentanoate

> <PUBCHEM_IUPAC_NAME>
methyl 5-(4-isoquinolin-5-ylsulfonylpiperazin-1-yl)pentanoate

> <PUBCHEM_IUPAC_SYSTEMATIC_NAME>
methyl 5-(4-isoquinolin-5-ylsulfonylpiperazin-1-yl)pentanoate

> <PUBCHEM_IUPAC_TRADITIONAL_NAME>
5-[4-(5-isoquinolylsulfonyl)piperazino]valeric acid methyl ester

> <PUBCHEM_IUPAC_INCHI>
InChI=1S/C19H25N3O4S/c1-26-19(23)7-2-3-10-21-11-13-22(14-12-21)27(24,25)18-6-4-5-16-15-20-9-8-17(16)18/h4-6,8-9,15H,2-3,7,10-14H2,1H3

> <PUBCHEM_IUPAC_INCHIKEY>
KQTIDAKABWWMJE-UHFFFAOYSA-N

> <PUBCHEM_XLOGP3_AA>
1.6

> <PUBCHEM_EXACT_MASS>
391.15657746

> <PUBCHEM_MOLECULAR_FORMULA>
C19H25N3O4S

> <PUBCHEM_MOLECULAR_WEIGHT>
391.5

> <PUBCHEM_SMILES>
COC(=O)CCCCN1CCN(CC1)S(=O)(=O)C2=CC=CC3=C2C=CN=C3

> <PUBCHEM_OPENEYE_CAN_SMILES>
COC(=O)CCCCN1CCN(CC1)S(=O)(=O)C2=CC=CC3=C2C=CN=C3

> <PUBCHEM_OPENEYE_ISO_SMILES>
COC(=O)CCCCN1CCN(CC1)S(=O)(=O)C2=CC=CC3=C2C=CN=C3

> <PUBCHEM_CACTVS_TPSA>
88.2

> <PUBCHEM_MONOISOTOPIC_WEIGHT>
391.15657746

> <PUBCHEM_TOTAL_CHARGE>
0

> <PUBCHEM_HEAVY_ATOM_COUNT>
27

> <PUBCHEM_ATOM_DEF_STEREO_COUNT>
0

> <PUBCHEM_ATOM_UDEF_STEREO_COUNT>
0

> <PUBCHEM_BOND_DEF_STEREO_COUNT>
0

> <PUBCHEM_BOND_UDEF_STEREO_COUNT>
0

> <PUBCHEM_ISOTOPIC_ATOM_COUNT>
0

> <PUBCHEM_COMPONENT_COUNT>
1

> <PUBCHEM_CACTVS_TAUTO_COUNT>
-1

> <PUBCHEM_COORDINATE_TYPE>
1
5
255

> <PUBCHEM_BONDANNOTATIONS>
15  17  8
15  19  8
17  20  8
17  22  8
19  21  8
20  23  8
20  25  8
21  23  8
22  26  8
8  25  8
8  26  8

$$$$
