49830543
  -OEChem-03202503122D

 42 45  0     0  0  0  0  0  0999 V2000
    5.3752   -2.5546    0.0000 O   0  0  0  0  0  0  0  0  0  0  0  0
    7.7071   -3.1794    0.0000 O   0  0  0  0  0  0  0  0  0  0  0  0
    3.0000    3.2415    0.0000 O   0  0  0  0  0  0  0  0  0  0  0  0
    6.0000   -0.2226    0.0000 N   0  0  0  0  0  0  0  0  0  0  0  0
    8.3320   -0.8474    0.0000 N   0  0  0  0  0  0  0  0  0  0  0  0
   11.8762   -2.6522    0.0000 N   0  0  0  0  0  0  0  0  0  0  0  0
   12.4599   -1.8474    0.0000 N   0  0  0  0  0  0  0  0  0  0  0  0
    6.5000   -1.0886    0.0000 C   0  0  0  0  0  0  0  0  0  0  0  0
    7.4659   -1.3474    0.0000 C   0  0  0  0  0  0  0  0  0  0  0  0
    6.2412   -2.0546    0.0000 C   0  0  0  0  0  0  0  0  0  0  0  0
    5.0000   -0.2226    0.0000 C   0  0  0  0  0  0  0  0  0  0  0  0
    7.2071   -2.3134    0.0000 C   0  0  0  0  0  0  0  0  0  0  0  0
    9.1980   -1.3474    0.0000 C   0  0  0  0  0  0  0  0  0  0  0  0
    4.5000    0.6434    0.0000 C   0  0  0  0  0  0  0  0  0  0  0  0
   10.9300   -1.3474    0.0000 C   0  0  0  0  0  0  0  0  0  0  0  0
   10.0640   -0.8474    0.0000 C   0  0  0  0  0  0  0  0  0  0  0  0
   10.9300   -2.3474    0.0000 C   0  0  0  0  0  0  0  0  0  0  0  0
    9.1980   -2.3474    0.0000 C   0  0  0  0  0  0  0  0  0  0  0  0
   10.0640   -2.8474    0.0000 C   0  0  0  0  0  0  0  0  0  0  0  0
    5.0000    1.5094    0.0000 C   0  0  0  0  0  0  0  0  0  0  0  0
    3.5000    0.6434    0.0000 C   0  0  0  0  0  0  0  0  0  0  0  0
   11.8762   -1.0427    0.0000 C   0  0  0  0  0  0  0  0  0  0  0  0
    4.5000    2.3755    0.0000 C   0  0  0  0  0  0  0  0  0  0  0  0
    3.0000    1.5094    0.0000 C   0  0  0  0  0  0  0  0  0  0  0  0
    3.5000    2.3755    0.0000 C   0  0  0  0  0  0  0  0  0  0  0  0
    2.0000    3.2415    0.0000 C   0  0  0  0  0  0  0  0  0  0  0  0
    6.3100    0.3143    0.0000 H   0  0  0  0  0  0  0  0  0  0  0  0
    4.4174   -0.4347    0.0000 H   0  0  0  0  0  0  0  0  0  0  0  0
    5.1077   -0.8332    0.0000 H   0  0  0  0  0  0  0  0  0  0  0  0
    8.3320   -0.2274    0.0000 H   0  0  0  0  0  0  0  0  0  0  0  0
   10.0640   -0.2274    0.0000 H   0  0  0  0  0  0  0  0  0  0  0  0
    8.6610   -2.6574    0.0000 H   0  0  0  0  0  0  0  0  0  0  0  0
   10.0640   -3.4674    0.0000 H   0  0  0  0  0  0  0  0  0  0  0  0
    5.6200    1.5094    0.0000 H   0  0  0  0  0  0  0  0  0  0  0  0
    3.1900    0.1065    0.0000 H   0  0  0  0  0  0  0  0  0  0  0  0
   12.0689   -0.4534    0.0000 H   0  0  0  0  0  0  0  0  0  0  0  0
   12.0689   -3.2415    0.0000 H   0  0  0  0  0  0  0  0  0  0  0  0
    4.8100    2.9124    0.0000 H   0  0  0  0  0  0  0  0  0  0  0  0
    2.3800    1.5094    0.0000 H   0  0  0  0  0  0  0  0  0  0  0  0
    2.0000    3.8615    0.0000 H   0  0  0  0  0  0  0  0  0  0  0  0
    1.3800    3.2415    0.0000 H   0  0  0  0  0  0  0  0  0  0  0  0
    2.0000    2.6215    0.0000 H   0  0  0  0  0  0  0  0  0  0  0  0
  1 10  2  0  0  0  0
  2 12  2  0  0  0  0
  3 25  1  0  0  0  0
  3 26  1  0  0  0  0
  4  8  1  0  0  0  0
  4 11  1  0  0  0  0
  4 27  1  0  0  0  0
  5  9  1  0  0  0  0
  5 13  1  0  0  0  0
  5 30  1  0  0  0  0
  6  7  1  0  0  0  0
  6 17  1  0  0  0  0
  6 37  1  0  0  0  0
  7 22  2  0  0  0  0
  8  9  2  0  0  0  0
  8 10  1  0  0  0  0
  9 12  1  0  0  0  0
 10 12  1  0  0  0  0
 11 14  1  0  0  0  0
 11 28  1  0  0  0  0
 11 29  1  0  0  0  0
 13 16  2  0  0  0  0
 13 18  1  0  0  0  0
 14 20  2  0  0  0  0
 14 21  1  0  0  0  0
 15 16  1  0  0  0  0
 15 17  2  0  0  0  0
 15 22  1  0  0  0  0
 16 31  1  0  0  0  0
 17 19  1  0  0  0  0
 18 19  2  0  0  0  0
 18 32  1  0  0  0  0
 19 33  1  0  0  0  0
 20 23  1  0  0  0  0
 20 34  1  0  0  0  0
 21 24  2  0  0  0  0
 21 35  1  0  0  0  0
 22 36  1  0  0  0  0
 23 25  2  0  0  0  0
 23 38  1  0  0  0  0
 24 25  1  0  0  0  0
 24 39  1  0  0  0  0
 26 40  1  0  0  0  0
 26 41  1  0  0  0  0
 26 42  1  0  0  0  0
M  END
> <PUBCHEM_COMPOUND_CID>
49830543

> <PUBCHEM_COMPOUND_CANONICALIZED>
1

> <PUBCHEM_CACTVS_COMPLEXITY>
598

> <PUBCHEM_CACTVS_HBOND_ACCEPTOR>
6

> <PUBCHEM_CACTVS_HBOND_DONOR>
3

> <PUBCHEM_CACTVS_ROTATABLE_BOND>
6

> <PUBCHEM_CACTVS_SUBSKEYS>
AAADceB7sAAAAAAAAAAAAAAAAABAAWAAAAAwYAAAAAAAAFgB9AAAHgAYAAAADAzBngY+xvLjBACqA7R3QACSDAAhogAYuaG+bNgMJqrE8fuEtChk2BHI6UeQ0AIOIACAQAACAABAAQCAAAQAAAAAAAAAAA==

> <PUBCHEM_IUPAC_OPENEYE_NAME>
3-(1H-indazol-5-ylamino)-4-[(4-methoxyphenyl)methylamino]cyclobut-3-ene-1,2-dione

> <PUBCHEM_IUPAC_CAS_NAME>
3-(1H-indazol-5-ylamino)-4-[(4-methoxyphenyl)methylamino]cyclobut-3-ene-1,2-dione

> <PUBCHEM_IUPAC_NAME_MARKUP>
3-(1<I>H</I>-indazol-5-ylamino)-4-[(4-methoxyphenyl)methylamino]cyclobut-3-ene-1,2-dione

> <PUBCHEM_IUPAC_NAME>
3-(1H-indazol-5-ylamino)-4-[(4-methoxyphenyl)methylamino]cyclobut-3-ene-1,2-dione

> <PUBCHEM_IUPAC_SYSTEMATIC_NAME>
3-(1H-indazol-5-ylamino)-4-[(4-methoxyphenyl)methylamino]cyclobut-3-ene-1,2-dione

> <PUBCHEM_IUPAC_TRADITIONAL_NAME>
3-(1H-indazol-5-ylamino)-4-(p-anisylamino)cyclobut-3-ene-1,2-quinone

> <PUBCHEM_IUPAC_INCHI>
InChI=1S/C19H16N4O3/c1-26-14-5-2-11(3-6-14)9-20-16-17(19(25)18(16)24)22-13-4-7-15-12(8-13)10-21-23-15/h2-8,10,20,22H,9H2,1H3,(H,21,23)

> <PUBCHEM_IUPAC_INCHIKEY>
VVQQRUZZQQSDEI-UHFFFAOYSA-N

> <PUBCHEM_XLOGP3_AA>
2.6

> <PUBCHEM_EXACT_MASS>
348.12224039

> <PUBCHEM_MOLECULAR_FORMULA>
C19H16N4O3

> <PUBCHEM_MOLECULAR_WEIGHT>
348.4

> <PUBCHEM_SMILES>
COC1=CC=C(C=C1)CNC2=C(C(=O)C2=O)NC3=CC4=C(C=C3)NN=C4

> <PUBCHEM_OPENEYE_CAN_SMILES>
COC1=CC=C(C=C1)CNC2=C(C(=O)C2=O)NC3=CC4=C(C=C3)NN=C4

> <PUBCHEM_OPENEYE_ISO_SMILES>
COC1=CC=C(C=C1)CNC2=C(C(=O)C2=O)NC3=CC4=C(C=C3)NN=C4

> <PUBCHEM_CACTVS_TPSA>
96.1

> <PUBCHEM_MONOISOTOPIC_WEIGHT>
348.12224039

> <PUBCHEM_TOTAL_CHARGE>
0

> <PUBCHEM_HEAVY_ATOM_COUNT>
26

> <PUBCHEM_ATOM_DEF_STEREO_COUNT>
0

> <PUBCHEM_ATOM_UDEF_STEREO_COUNT>
0

> <PUBCHEM_BOND_DEF_STEREO_COUNT>
0

> <PUBCHEM_BOND_UDEF_STEREO_COUNT>
0

> <PUBCHEM_ISOTOPIC_ATOM_COUNT>
0

> <PUBCHEM_COMPONENT_COUNT>
1

> <PUBCHEM_CACTVS_TAUTO_COUNT>
-1

> <PUBCHEM_COORDINATE_TYPE>
1
5
255

> <PUBCHEM_BONDANNOTATIONS>
10  12  8
13  16  8
13  18  8
14  20  8
14  21  8
15  16  8
15  17  8
15  22  8
17  19  8
18  19  8
20  23  8
21  24  8
23  25  8
24  25  8
6  17  8
6  7  8
7  22  8
8  10  8
8  9  8
9  12  8

$$$$
