3453237
  -OEChem-03202500372D

 42 45  0     0  0  0  0  0  0999 V2000
   11.8356   -0.3154    0.0000 O   0  0  0  0  0  0  0  0  0  0  0  0
    2.8090    1.9437    0.0000 O   0  0  0  0  0  0  0  0  0  0  0  0
    6.7985   -0.3425    0.0000 O   0  0  0  0  0  0  0  0  0  0  0  0
    9.5755    0.9447    0.0000 N   0  0  0  0  0  0  0  0  0  0  0  0
    9.2665    1.8958    0.0000 N   0  0  0  0  0  0  0  0  0  0  0  0
    8.2665    1.8958    0.0000 N   0  0  0  0  0  0  0  0  0  0  0  0
    6.2633    1.3048    0.0000 N   0  0  0  0  0  0  0  0  0  0  0  0
   10.8356   -0.3154    0.0000 N   0  0  0  0  0  0  0  0  0  0  0  0
    5.3122    0.9958    0.0000 N   0  0  0  0  0  0  0  0  0  0  0  0
   12.1446    0.6357    0.0000 N   0  0  0  0  0  0  0  0  0  0  0  0
   11.3356    2.2235    0.0000 N   0  0  0  0  0  0  0  0  0  0  0  0
    8.7665    0.3569    0.0000 C   0  0  0  0  0  0  0  0  0  0  0  0
    8.7665   -0.6431    0.0000 C   0  0  0  0  0  0  0  0  0  0  0  0
    7.9575    0.9447    0.0000 C   0  0  0  0  0  0  0  0  0  0  0  0
   10.5266    0.6357    0.0000 C   0  0  0  0  0  0  0  0  0  0  0  0
    7.9005   -1.1431    0.0000 C   0  0  0  0  0  0  0  0  0  0  0  0
    9.6325   -1.1431    0.0000 C   0  0  0  0  0  0  0  0  0  0  0  0
    7.0064    0.6357    0.0000 C   0  0  0  0  0  0  0  0  0  0  0  0
    7.9005   -2.1431    0.0000 C   0  0  0  0  0  0  0  0  0  0  0  0
    9.6325   -2.1431    0.0000 C   0  0  0  0  0  0  0  0  0  0  0  0
   11.3356    1.2235    0.0000 C   0  0  0  0  0  0  0  0  0  0  0  0
    8.7665   -2.6431    0.0000 C   0  0  0  0  0  0  0  0  0  0  0  0
    4.5691    1.6649    0.0000 C   0  0  0  0  0  0  0  0  0  0  0  0
    3.6180    1.3559    0.0000 C   0  0  0  0  0  0  0  0  0  0  0  0
    4.7770    2.6431    0.0000 C   0  0  0  0  0  0  0  0  0  0  0  0
    3.3090    0.4049    0.0000 C   0  0  0  0  0  0  0  0  0  0  0  0
    2.3090    0.4049    0.0000 C   0  0  0  0  0  0  0  0  0  0  0  0
    2.0000    1.3559    0.0000 C   0  0  0  0  0  0  0  0  0  0  0  0
    7.3636   -0.8331    0.0000 H   0  0  0  0  0  0  0  0  0  0  0  0
   10.1695   -0.8331    0.0000 H   0  0  0  0  0  0  0  0  0  0  0  0
    7.3636   -2.4531    0.0000 H   0  0  0  0  0  0  0  0  0  0  0  0
   10.1695   -2.4531    0.0000 H   0  0  0  0  0  0  0  0  0  0  0  0
    8.7665   -3.2631    0.0000 H   0  0  0  0  0  0  0  0  0  0  0  0
    6.3922    1.9113    0.0000 H   0  0  0  0  0  0  0  0  0  0  0  0
    5.3834    2.5142    0.0000 H   0  0  0  0  0  0  0  0  0  0  0  0
    4.9059    3.2495    0.0000 H   0  0  0  0  0  0  0  0  0  0  0  0
    4.1706    2.7720    0.0000 H   0  0  0  0  0  0  0  0  0  0  0  0
    3.6734   -0.0967    0.0000 H   0  0  0  0  0  0  0  0  0  0  0  0
   11.8725    2.5335    0.0000 H   0  0  0  0  0  0  0  0  0  0  0  0
   10.7987    2.5335    0.0000 H   0  0  0  0  0  0  0  0  0  0  0  0
    1.9446   -0.0967    0.0000 H   0  0  0  0  0  0  0  0  0  0  0  0
    1.4103    1.5475    0.0000 H   0  0  0  0  0  0  0  0  0  0  0  0
  1  8  1  0  0  0  0
  1 10  1  0  0  0  0
  2 24  1  0  0  0  0
  2 28  1  0  0  0  0
  3 18  2  0  0  0  0
  4  5  1  0  0  0  0
  4 12  1  0  0  0  0
  4 15  1  0  0  0  0
  5  6  2  0  0  0  0
  6 14  1  0  0  0  0
  7  9  1  0  0  0  0
  7 18  1  0  0  0  0
  7 34  1  0  0  0  0
  8 15  2  0  0  0  0
  9 23  2  3  0  0  0
 10 21  2  0  0  0  0
 11 21  1  0  0  0  0
 11 39  1  0  0  0  0
 11 40  1  0  0  0  0
 12 13  1  0  0  0  0
 12 14  2  0  0  0  0
 13 16  2  0  0  0  0
 13 17  1  0  0  0  0
 14 18  1  0  0  0  0
 15 21  1  0  0  0  0
 16 19  1  0  0  0  0
 16 29  1  0  0  0  0
 17 20  2  0  0  0  0
 17 30  1  0  0  0  0
 19 22  2  0  0  0  0
 19 31  1  0  0  0  0
 20 22  1  0  0  0  0
 20 32  1  0  0  0  0
 22 33  1  0  0  0  0
 23 24  1  0  0  0  0
 23 25  1  0  0  0  0
 24 26  2  0  0  0  0
 25 35  1  0  0  0  0
 25 36  1  0  0  0  0
 25 37  1  0  0  0  0
 26 27  1  0  0  0  0
 26 38  1  0  0  0  0
 27 28  2  0  0  0  0
 27 41  1  0  0  0  0
 28 42  1  0  0  0  0
M  END
> <PUBCHEM_COMPOUND_CID>
3453237

> <PUBCHEM_COMPOUND_CANONICALIZED>
1

> <PUBCHEM_CACTVS_COMPLEXITY>
585

> <PUBCHEM_CACTVS_HBOND_ACCEPTOR>
9

> <PUBCHEM_CACTVS_HBOND_DONOR>
2

> <PUBCHEM_CACTVS_ROTATABLE_BOND>
5

> <PUBCHEM_CACTVS_SUBSKEYS>
AAADccB78AAAAAAAAAAAAAAAAAAAAWLEgAAwAAAAAAAAAAAB/AAAHgAcAAAADAyhngIztJJ6BECrA69y9gSSDCQnMAA/mCG2XNqMZvrE/RuWOajkyJPI6eeYyICOAAAAAAAAAAAAAAAAAAAAAAAAAAAAAA==

> <PUBCHEM_IUPAC_OPENEYE_NAME>
1-(4-amino-1,2,5-oxadiazol-3-yl)-N-[1-(2-furyl)ethylideneamino]-5-phenyl-triazole-4-carboxamide

> <PUBCHEM_IUPAC_CAS_NAME>
1-(4-amino-1,2,5-oxadiazol-3-yl)-N-[1-(2-furanyl)ethylideneamino]-5-phenyl-4-triazolecarboxamide

> <PUBCHEM_IUPAC_NAME_MARKUP>
1-(4-amino-1,2,5-oxadiazol-3-yl)-<I>N</I>-[1-(furan-2-yl)ethylideneamino]-5-phenyltriazole-4-carboxamide

> <PUBCHEM_IUPAC_NAME>
1-(4-amino-1,2,5-oxadiazol-3-yl)-N-[1-(furan-2-yl)ethylideneamino]-5-phenyltriazole-4-carboxamide

> <PUBCHEM_IUPAC_SYSTEMATIC_NAME>
1-(4-azanyl-1,2,5-oxadiazol-3-yl)-N-[1-(furan-2-yl)ethylideneamino]-5-phenyl-1,2,3-triazole-4-carboxamide

> <PUBCHEM_IUPAC_TRADITIONAL_NAME>
1-(4-aminofurazan-3-yl)-N-[1-(2-furyl)ethylideneamino]-5-phenyl-triazole-4-carboxamide

> <PUBCHEM_IUPAC_INCHI>
InChI=1S/C17H14N8O3/c1-10(12-8-5-9-27-12)19-21-17(26)13-14(11-6-3-2-4-7-11)25(24-20-13)16-15(18)22-28-23-16/h2-9H,1H3,(H2,18,22)(H,21,26)

> <PUBCHEM_IUPAC_INCHIKEY>
MNKPPPQRDMQANZ-UHFFFAOYSA-N

> <PUBCHEM_XLOGP3_AA>
1.7

> <PUBCHEM_EXACT_MASS>
378.11888634

> <PUBCHEM_MOLECULAR_FORMULA>
C17H14N8O3

> <PUBCHEM_MOLECULAR_WEIGHT>
378.3

> <PUBCHEM_SMILES>
CC(=NNC(=O)C1=C(N(N=N1)C2=NON=C2N)C3=CC=CC=C3)C4=CC=CO4

> <PUBCHEM_OPENEYE_CAN_SMILES>
CC(=NNC(=O)C1=C(N(N=N1)C2=NON=C2N)C3=CC=CC=C3)C4=CC=CO4

> <PUBCHEM_OPENEYE_ISO_SMILES>
CC(=NNC(=O)C1=C(N(N=N1)C2=NON=C2N)C3=CC=CC=C3)C4=CC=CO4

> <PUBCHEM_CACTVS_TPSA>
150

> <PUBCHEM_MONOISOTOPIC_WEIGHT>
378.11888634

> <PUBCHEM_TOTAL_CHARGE>
0

> <PUBCHEM_HEAVY_ATOM_COUNT>
28

> <PUBCHEM_ATOM_DEF_STEREO_COUNT>
0

> <PUBCHEM_ATOM_UDEF_STEREO_COUNT>
0

> <PUBCHEM_BOND_DEF_STEREO_COUNT>
0

> <PUBCHEM_BOND_UDEF_STEREO_COUNT>
1

> <PUBCHEM_ISOTOPIC_ATOM_COUNT>
0

> <PUBCHEM_COMPONENT_COUNT>
1

> <PUBCHEM_CACTVS_TAUTO_COUNT>
-1

> <PUBCHEM_COORDINATE_TYPE>
1
5
255

> <PUBCHEM_BONDANNOTATIONS>
1  10  8
1  8  8
10  21  8
12  14  8
13  16  8
13  17  8
15  21  8
16  19  8
17  20  8
19  22  8
2  24  8
2  28  8
20  22  8
24  26  8
26  27  8
27  28  8
4  12  8
4  5  8
5  6  8
6  14  8
8  15  8
9  23  1

$$$$
