3099034
  -OEChem-03202504052D

 56 57  0     0  0  0  0  0  0999 V2000
    2.8660   -2.7500    0.0000 O   0  0  0  0  0  0  0  0  0  0  0  0
    8.9282    2.7500    0.0000 O   0  0  0  0  0  0  0  0  0  0  0  0
    4.5981   -2.7500    0.0000 N   0  0  0  0  0  0  0  0  0  0  0  0
    7.1962    2.7500    0.0000 N   0  0  0  0  0  0  0  0  0  0  0  0
    3.7320   -4.2500    0.0000 N   0  0  0  0  0  0  0  0  0  0  0  0
    8.0622    4.2500    0.0000 N   0  0  0  0  0  0  0  0  0  0  0  0
    3.7320   -7.2500    0.0000 N   0  0  0  0  0  0  0  0  0  0  0  0
    8.0622    7.2500    0.0000 N   0  0  0  0  0  0  0  0  0  0  0  0
    5.4641   -0.2500    0.0000 C   0  0  0  0  0  0  0  0  0  0  0  0
    6.3301    0.2500    0.0000 C   0  0  0  0  0  0  0  0  0  0  0  0
    5.4641   -1.2500    0.0000 C   0  0  0  0  0  0  0  0  0  0  0  0
    6.3301    1.2500    0.0000 C   0  0  0  0  0  0  0  0  0  0  0  0
    4.5981   -1.7500    0.0000 C   0  0  0  0  0  0  0  0  0  0  0  0
    7.1962    1.7500    0.0000 C   0  0  0  0  0  0  0  0  0  0  0  0
    3.7320   -3.2500    0.0000 C   0  0  0  0  0  0  0  0  0  0  0  0
    8.0622    3.2500    0.0000 C   0  0  0  0  0  0  0  0  0  0  0  0
    2.8660   -4.7500    0.0000 C   0  0  0  0  0  0  0  0  0  0  0  0
    8.9282    4.7500    0.0000 C   0  0  0  0  0  0  0  0  0  0  0  0
    2.8660   -5.7500    0.0000 C   0  0  0  0  0  0  0  0  0  0  0  0
    8.9282    5.7500    0.0000 C   0  0  0  0  0  0  0  0  0  0  0  0
    2.0000   -6.2500    0.0000 C   0  0  0  0  0  0  0  0  0  0  0  0
    9.7942    6.2500    0.0000 C   0  0  0  0  0  0  0  0  0  0  0  0
    3.7320   -6.2500    0.0000 C   0  0  0  0  0  0  0  0  0  0  0  0
    8.0622    6.2500    0.0000 C   0  0  0  0  0  0  0  0  0  0  0  0
    2.0000   -7.2500    0.0000 C   0  0  0  0  0  0  0  0  0  0  0  0
    9.7942    7.2500    0.0000 C   0  0  0  0  0  0  0  0  0  0  0  0
    2.8660   -7.7500    0.0000 C   0  0  0  0  0  0  0  0  0  0  0  0
    8.9282    7.7500    0.0000 C   0  0  0  0  0  0  0  0  0  0  0  0
    5.2520    0.3326    0.0000 H   0  0  0  0  0  0  0  0  0  0  0  0
    4.8535   -0.3577    0.0000 H   0  0  0  0  0  0  0  0  0  0  0  0
    6.5422   -0.3326    0.0000 H   0  0  0  0  0  0  0  0  0  0  0  0
    6.9407    0.3577    0.0000 H   0  0  0  0  0  0  0  0  0  0  0  0
    5.6762   -1.8326    0.0000 H   0  0  0  0  0  0  0  0  0  0  0  0
    6.0747   -1.1423    0.0000 H   0  0  0  0  0  0  0  0  0  0  0  0
    6.1181    1.8326    0.0000 H   0  0  0  0  0  0  0  0  0  0  0  0
    5.7196    1.1423    0.0000 H   0  0  0  0  0  0  0  0  0  0  0  0
    4.3860   -1.1674    0.0000 H   0  0  0  0  0  0  0  0  0  0  0  0
    3.9875   -1.8577    0.0000 H   0  0  0  0  0  0  0  0  0  0  0  0
    7.4082    1.1674    0.0000 H   0  0  0  0  0  0  0  0  0  0  0  0
    7.8067    1.8577    0.0000 H   0  0  0  0  0  0  0  0  0  0  0  0
    5.1350   -3.0600    0.0000 H   0  0  0  0  0  0  0  0  0  0  0  0
    6.6592    3.0600    0.0000 H   0  0  0  0  0  0  0  0  0  0  0  0
    4.2690   -4.5600    0.0000 H   0  0  0  0  0  0  0  0  0  0  0  0
    7.5252    4.5600    0.0000 H   0  0  0  0  0  0  0  0  0  0  0  0
    2.6540   -4.1674    0.0000 H   0  0  0  0  0  0  0  0  0  0  0  0
    2.2554   -4.8577    0.0000 H   0  0  0  0  0  0  0  0  0  0  0  0
    9.1403    4.1674    0.0000 H   0  0  0  0  0  0  0  0  0  0  0  0
    9.5388    4.8577    0.0000 H   0  0  0  0  0  0  0  0  0  0  0  0
    1.4631   -5.9400    0.0000 H   0  0  0  0  0  0  0  0  0  0  0  0
   10.3312    5.9400    0.0000 H   0  0  0  0  0  0  0  0  0  0  0  0
    4.2690   -5.9400    0.0000 H   0  0  0  0  0  0  0  0  0  0  0  0
    7.5252    5.9400    0.0000 H   0  0  0  0  0  0  0  0  0  0  0  0
    1.4631   -7.5600    0.0000 H   0  0  0  0  0  0  0  0  0  0  0  0
   10.3312    7.5600    0.0000 H   0  0  0  0  0  0  0  0  0  0  0  0
    2.8660   -8.3700    0.0000 H   0  0  0  0  0  0  0  0  0  0  0  0
    8.9282    8.3700    0.0000 H   0  0  0  0  0  0  0  0  0  0  0  0
  1 15  2  0  0  0  0
  2 16  2  0  0  0  0
  3 13  1  0  0  0  0
  3 15  1  0  0  0  0
  3 41  1  0  0  0  0
  4 14  1  0  0  0  0
  4 16  1  0  0  0  0
  4 42  1  0  0  0  0
  5 15  1  0  0  0  0
  5 17  1  0  0  0  0
  5 43  1  0  0  0  0
  6 16  1  0  0  0  0
  6 18  1  0  0  0  0
  6 44  1  0  0  0  0
  7 23  1  0  0  0  0
  7 27  2  0  0  0  0
  8 24  1  0  0  0  0
  8 28  2  0  0  0  0
  9 10  1  0  0  0  0
  9 11  1  0  0  0  0
  9 29  1  0  0  0  0
  9 30  1  0  0  0  0
 10 12  1  0  0  0  0
 10 31  1  0  0  0  0
 10 32  1  0  0  0  0
 11 13  1  0  0  0  0
 11 33  1  0  0  0  0
 11 34  1  0  0  0  0
 12 14  1  0  0  0  0
 12 35  1  0  0  0  0
 12 36  1  0  0  0  0
 13 37  1  0  0  0  0
 13 38  1  0  0  0  0
 14 39  1  0  0  0  0
 14 40  1  0  0  0  0
 17 19  1  0  0  0  0
 17 45  1  0  0  0  0
 17 46  1  0  0  0  0
 18 20  1  0  0  0  0
 18 47  1  0  0  0  0
 18 48  1  0  0  0  0
 19 21  1  0  0  0  0
 19 23  2  0  0  0  0
 20 22  1  0  0  0  0
 20 24  2  0  0  0  0
 21 25  2  0  0  0  0
 21 49  1  0  0  0  0
 22 26  2  0  0  0  0
 22 50  1  0  0  0  0
 23 51  1  0  0  0  0
 24 52  1  0  0  0  0
 25 27  1  0  0  0  0
 25 53  1  0  0  0  0
 26 28  1  0  0  0  0
 26 54  1  0  0  0  0
 27 55  1  0  0  0  0
 28 56  1  0  0  0  0
M  END
> <PUBCHEM_COMPOUND_CID>
3099034

> <PUBCHEM_COMPOUND_CANONICALIZED>
1

> <PUBCHEM_CACTVS_COMPLEXITY>
408

> <PUBCHEM_CACTVS_HBOND_ACCEPTOR>
4

> <PUBCHEM_CACTVS_HBOND_DONOR>
4

> <PUBCHEM_CACTVS_ROTATABLE_BOND>
11

> <PUBCHEM_CACTVS_SUBSKEYS>
AAADceB7sAAAAAAAAAAAAAAAAAAAAAAAAAAsWAAAAAAAAAAB4AAAHgAQAAAADADBGgQ9gJLIEACoAjBnVACCgCAxAiAI2KA4ZJiIIOLA0ZGEIAholgLIyAcQAAAMAAAAAAAAAAAAAAAAAAAAAAAAAAAAAA==

> <PUBCHEM_IUPAC_OPENEYE_NAME>
1-(3-pyridylmethyl)-3-[6-(3-pyridylmethylcarbamoylamino)hexyl]urea

> <PUBCHEM_IUPAC_CAS_NAME>
1-[6-[[oxo-(3-pyridinylmethylamino)methyl]amino]hexyl]-3-(3-pyridinylmethyl)urea

> <PUBCHEM_IUPAC_NAME_MARKUP>
1-(pyridin-3-ylmethyl)-3-[6-(pyridin-3-ylmethylcarbamoylamino)hexyl]urea

> <PUBCHEM_IUPAC_NAME>
1-(pyridin-3-ylmethyl)-3-[6-(pyridin-3-ylmethylcarbamoylamino)hexyl]urea

> <PUBCHEM_IUPAC_SYSTEMATIC_NAME>
1-(pyridin-3-ylmethyl)-3-[6-(pyridin-3-ylmethylcarbamoylamino)hexyl]urea

> <PUBCHEM_IUPAC_TRADITIONAL_NAME>
1-(3-pyridylmethyl)-3-[6-(3-pyridylmethylcarbamoylamino)hexyl]urea

> <PUBCHEM_IUPAC_INCHI>
InChI=1S/C20H28N6O2/c27-19(25-15-17-7-5-9-21-13-17)23-11-3-1-2-4-12-24-20(28)26-16-18-8-6-10-22-14-18/h5-10,13-14H,1-4,11-12,15-16H2,(H2,23,25,27)(H2,24,26,28)

> <PUBCHEM_IUPAC_INCHIKEY>
MHRZYVYAAMLZJC-UHFFFAOYSA-N

> <PUBCHEM_XLOGP3_AA>
0.8

> <PUBCHEM_EXACT_MASS>
384.22737416

> <PUBCHEM_MOLECULAR_FORMULA>
C20H28N6O2

> <PUBCHEM_MOLECULAR_WEIGHT>
384.5

> <PUBCHEM_SMILES>
C1=CC(=CN=C1)CNC(=O)NCCCCCCNC(=O)NCC2=CN=CC=C2

> <PUBCHEM_OPENEYE_CAN_SMILES>
C1=CC(=CN=C1)CNC(=O)NCCCCCCNC(=O)NCC2=CN=CC=C2

> <PUBCHEM_OPENEYE_ISO_SMILES>
C1=CC(=CN=C1)CNC(=O)NCCCCCCNC(=O)NCC2=CN=CC=C2

> <PUBCHEM_CACTVS_TPSA>
108

> <PUBCHEM_MONOISOTOPIC_WEIGHT>
384.22737416

> <PUBCHEM_TOTAL_CHARGE>
0

> <PUBCHEM_HEAVY_ATOM_COUNT>
28

> <PUBCHEM_ATOM_DEF_STEREO_COUNT>
0

> <PUBCHEM_ATOM_UDEF_STEREO_COUNT>
0

> <PUBCHEM_BOND_DEF_STEREO_COUNT>
0

> <PUBCHEM_BOND_UDEF_STEREO_COUNT>
0

> <PUBCHEM_ISOTOPIC_ATOM_COUNT>
0

> <PUBCHEM_COMPONENT_COUNT>
1

> <PUBCHEM_CACTVS_TAUTO_COUNT>
-1

> <PUBCHEM_COORDINATE_TYPE>
1
5
255

> <PUBCHEM_BONDANNOTATIONS>
19  21  8
19  23  8
20  22  8
20  24  8
21  25  8
22  26  8
25  27  8
26  28  8
7  23  8
7  27  8
8  24  8
8  28  8

$$$$
