44364138
  -OEChem-03202500202D

 47 54  0     1  0  0  0  0  0999 V2000
    1.5393    0.2034    0.0000 O   0  0  0  0  0  0  0  0  0  0  0  0
    8.1175   -2.7437    0.0000 O   0  0  0  0  0  0  0  0  0  0  0  0
    9.3410    0.6180    0.0000 O   0  0  0  0  0  0  0  0  0  0  0  0
    4.6639   -0.6474    0.0000 N   0  0  0  0  0  0  0  0  0  0  0  0
    5.3479    1.2320    0.0000 N   0  0  0  0  0  0  0  0  0  0  0  0
    4.0659    2.3172    0.0000 N   0  0  0  0  0  0  0  0  0  0  0  0
    9.0086   -1.1645    0.0000 N   0  0  0  0  0  0  0  0  0  0  0  0
    3.5881    0.3687    0.0000 C   0  0  1  0  0  0  0  0  0  0  0  0
    3.3293    1.3346    0.0000 C   0  0  2  0  0  0  0  0  0  0  0  0
    5.6487   -0.4737    0.0000 C   0  0  0  0  0  0  0  0  0  0  0  0
    5.9907    0.4660    0.0000 C   0  0  0  0  0  0  0  0  0  0  0  0
    6.3059   -1.2819    0.0000 C   0  0  0  0  0  0  0  0  0  0  0  0
    7.0136    0.6626    0.0000 C   0  0  0  0  0  0  0  0  0  0  0  0
    4.6908   -1.6408    0.0000 C   0  0  0  0  0  0  0  0  0  0  0  0
    6.0072    1.9757    0.0000 C   0  0  0  0  0  0  0  0  0  0  0  0
    2.3164   -0.4260    0.0000 C   0  0  0  0  0  0  0  0  0  0  0  0
    1.8976    1.1369    0.0000 C   0  0  0  0  0  0  0  0  0  0  0  0
    5.6179   -1.9990    0.0000 C   0  0  0  0  0  0  0  0  0  0  0  0
    6.9476    1.6543    0.0000 C   0  0  0  0  0  0  0  0  0  0  0  0
    7.3330   -1.1089    0.0000 C   0  0  0  0  0  0  0  0  0  0  0  0
    7.6893   -0.1301    0.0000 C   0  0  0  0  0  0  0  0  0  0  0  0
    8.1506   -1.7443    0.0000 C   0  0  0  0  0  0  0  0  0  0  0  0
    8.7240   -0.1689    0.0000 C   0  0  0  0  0  0  0  0  0  0  0  0
    3.8750   -2.2780    0.0000 C   0  0  0  0  0  0  0  0  0  0  0  0
    5.7917    2.9882    0.0000 C   0  0  0  0  0  0  0  0  0  0  0  0
    5.7933   -3.0193    0.0000 C   0  0  0  0  0  0  0  0  0  0  0  0
    7.7377    2.3231    0.0000 C   0  0  0  0  0  0  0  0  0  0  0  0
    4.0267   -3.3020    0.0000 C   0  0  0  0  0  0  0  0  0  0  0  0
    6.5662    3.6751    0.0000 C   0  0  0  0  0  0  0  0  0  0  0  0
    4.9923   -3.6751    0.0000 C   0  0  0  0  0  0  0  0  0  0  0  0
    7.5457    3.3403    0.0000 C   0  0  0  0  0  0  0  0  0  0  0  0
    3.8081   -0.4524    0.0000 H   0  0  0  0  0  0  0  0  0  0  0  0
    3.1093    2.1556    0.0000 H   0  0  0  0  0  0  0  0  0  0  0  0
    4.3759    2.8542    0.0000 H   0  0  0  0  0  0  0  0  0  0  0  0
    2.7010   -0.9123    0.0000 H   0  0  0  0  0  0  0  0  0  0  0  0
    1.8754   -0.8618    0.0000 H   0  0  0  0  0  0  0  0  0  0  0  0
    1.2898    1.2593    0.0000 H   0  0  0  0  0  0  0  0  0  0  0  0
    1.9167    1.7566    0.0000 H   0  0  0  0  0  0  0  0  0  0  0  0
    3.2993   -2.0478    0.0000 H   0  0  0  0  0  0  0  0  0  0  0  0
    5.2028    3.1820    0.0000 H   0  0  0  0  0  0  0  0  0  0  0  0
    6.3741   -3.2360    0.0000 H   0  0  0  0  0  0  0  0  0  0  0  0
    8.3220    2.1157    0.0000 H   0  0  0  0  0  0  0  0  0  0  0  0
    9.5912   -1.3766    0.0000 H   0  0  0  0  0  0  0  0  0  0  0  0
    3.5425   -3.6892    0.0000 H   0  0  0  0  0  0  0  0  0  0  0  0
    6.4442    4.2830    0.0000 H   0  0  0  0  0  0  0  0  0  0  0  0
    5.0903   -4.2873    0.0000 H   0  0  0  0  0  0  0  0  0  0  0  0
    8.0143    3.7463    0.0000 H   0  0  0  0  0  0  0  0  0  0  0  0
  1 16  1  0  0  0  0
  1 17  1  0  0  0  0
  2 22  2  0  0  0  0
  3 23  2  0  0  0  0
  4  8  1  0  0  0  0
  4 10  1  0  0  0  0
  4 14  1  0  0  0  0
  5  9  1  0  0  0  0
  5 11  1  0  0  0  0
  5 15  1  0  0  0  0
  6  8  1  0  0  0  0
  6  9  1  0  0  0  0
  6 34  1  0  0  0  0
  7 22  1  0  0  0  0
  7 23  1  0  0  0  0
  7 43  1  0  0  0  0
  8 16  1  0  0  0  0
  8 32  1  1  0  0  0
  9 17  1  0  0  0  0
  9 33  1  6  0  0  0
 10 11  2  0  0  0  0
 10 12  1  0  0  0  0
 11 13  1  0  0  0  0
 12 18  1  0  0  0  0
 12 20  2  0  0  0  0
 13 19  1  0  0  0  0
 13 21  2  0  0  0  0
 14 18  1  0  0  0  0
 14 24  2  0  0  0  0
 15 19  1  0  0  0  0
 15 25  2  0  0  0  0
 16 35  1  0  0  0  0
 16 36  1  0  0  0  0
 17 37  1  0  0  0  0
 17 38  1  0  0  0  0
 18 26  2  0  0  0  0
 19 27  2  0  0  0  0
 20 21  1  0  0  0  0
 20 22  1  0  0  0  0
 21 23  1  0  0  0  0
 24 28  1  0  0  0  0
 24 39  1  0  0  0  0
 25 29  1  0  0  0  0
 25 40  1  0  0  0  0
 26 30  1  0  0  0  0
 26 41  1  0  0  0  0
 27 31  1  0  0  0  0
 27 42  1  0  0  0  0
 28 30  2  0  0  0  0
 28 44  1  0  0  0  0
 29 31  2  0  0  0  0
 29 45  1  0  0  0  0
 30 46  1  0  0  0  0
 31 47  1  0  0  0  0
M  END
> <PUBCHEM_COMPOUND_CID>
44364138

> <PUBCHEM_COMPOUND_CANONICALIZED>
1

> <PUBCHEM_CACTVS_COMPLEXITY>
772

> <PUBCHEM_CACTVS_HBOND_ACCEPTOR>
4

> <PUBCHEM_CACTVS_HBOND_DONOR>
2

> <PUBCHEM_CACTVS_ROTATABLE_BOND>
0

> <PUBCHEM_CACTVS_SUBSKEYS>
AAADceB7sAAAAAAAAAAAAAAAAAAAAWLFgAA8YMEABYAAAFix/gAAHgAQAAAADAjhngYxwPPMFACoAyVyVACCgCQlEiAI2KE4dNiKYPLAlZGXIQholCLYyScdicCeyAACQAASACCQAASAACQAQAAAAAAAAA==

> <PUBCHEM_IUPAC_OPENEYE_NAME>
(2R,6S)-4-oxa-1,7,17,29-tetrazaoctacyclo[12.12.2.12,6.07,28.08,13.015,19.020,27.021,26]nonacosa-8,10,12,14,19,21,23,25,27-nonaene-16,18-dione

> <PUBCHEM_IUPAC_CAS_NAME>
(2R,6S)-4-oxa-1,7,17,29-tetrazaoctacyclo[12.12.2.12,6.07,28.08,13.015,19.020,27.021,26]nonacosa-8,10,12,14,19,21,23,25,27-nonaene-16,18-dione

> <PUBCHEM_IUPAC_NAME_MARKUP>
(2<I>R</I>,6<I>S</I>)-4-oxa-1,7,17,29-tetrazaoctacyclo[12.12.2.1<SUP>2,6</SUP>.0<SUP>7,28</SUP>.0<SUP>8,13</SUP>.0<SUP>15,19</SUP>.0<SUP>20,27</SUP>.0<SUP>21,26</SUP>]nonacosa-8,10,12,14,19,21,23,25,27-nonaene-16,18-dione

> <PUBCHEM_IUPAC_NAME>
(2R,6S)-4-oxa-1,7,17,29-tetrazaoctacyclo[12.12.2.12,6.07,28.08,13.015,19.020,27.021,26]nonacosa-8,10,12,14,19,21,23,25,27-nonaene-16,18-dione

> <PUBCHEM_IUPAC_SYSTEMATIC_NAME>
(2R,6S)-4-oxa-1,7,17,29-tetrazaoctacyclo[12.12.2.12,6.07,28.08,13.015,19.020,27.021,26]nonacosa-8,10,12,14,19,21,23,25,27-nonaene-16,18-dione

> <PUBCHEM_IUPAC_TRADITIONAL_NAME>
(2R,6S)-4-oxa-1,7,17,29-tetrazaoctacyclo[12.12.2.12,6.07,28.08,13.015,19.020,27.021,26]nonacosa-8,10,12,14,19,21,23,25,27-nonaene-16,18-quinone

> <PUBCHEM_IUPAC_INCHI>
InChI=1S/C24H16N4O3/c29-23-19-17-11-5-1-3-7-13(11)27-15-9-31-10-16(25-15)28-14-8-4-2-6-12(14)18(22(28)21(17)27)20(19)24(30)26-23/h1-8,15-16,25H,9-10H2,(H,26,29,30)/t15-,16+

> <PUBCHEM_IUPAC_INCHIKEY>
MGMNDPRNDCWSMZ-IYBDPMFKSA-N

> <PUBCHEM_XLOGP3_AA>
2.7

> <PUBCHEM_EXACT_MASS>
408.12224039

> <PUBCHEM_MOLECULAR_FORMULA>
C24H16N4O3

> <PUBCHEM_MOLECULAR_WEIGHT>
408.4

> <PUBCHEM_SMILES>
C1[C@@H]2N[C@H](CO1)N3C4=CC=CC=C4C5=C6C(=C7C8=CC=CC=C8N2C7=C53)C(=O)NC6=O

> <PUBCHEM_OPENEYE_CAN_SMILES>
C1C2NC(CO1)N3C4=CC=CC=C4C5=C6C(=C7C8=CC=CC=C8N2C7=C53)C(=O)NC6=O

> <PUBCHEM_OPENEYE_ISO_SMILES>
C1[C@@H]2N[C@H](CO1)N3C4=CC=CC=C4C5=C6C(=C7C8=CC=CC=C8N2C7=C53)C(=O)NC6=O

> <PUBCHEM_CACTVS_TPSA>
77.3

> <PUBCHEM_MONOISOTOPIC_WEIGHT>
408.12224039

> <PUBCHEM_TOTAL_CHARGE>
0

> <PUBCHEM_HEAVY_ATOM_COUNT>
31

> <PUBCHEM_ATOM_DEF_STEREO_COUNT>
2

> <PUBCHEM_ATOM_UDEF_STEREO_COUNT>
0

> <PUBCHEM_BOND_DEF_STEREO_COUNT>
0

> <PUBCHEM_BOND_UDEF_STEREO_COUNT>
0

> <PUBCHEM_ISOTOPIC_ATOM_COUNT>
0

> <PUBCHEM_COMPONENT_COUNT>
1

> <PUBCHEM_CACTVS_TAUTO_COUNT>
-1

> <PUBCHEM_COORDINATE_TYPE>
1
5
255

> <PUBCHEM_BONDANNOTATIONS>
10  11  8
10  12  8
11  13  8
12  18  8
12  20  8
13  19  8
13  21  8
14  18  8
14  24  8
15  19  8
15  25  8
18  26  8
19  27  8
20  21  8
24  28  8
25  29  8
26  30  8
27  31  8
28  30  8
29  31  8
4  10  8
4  14  8
5  11  8
5  15  8
8  32  5
9  33  6

$$$$
