24905181
  -OEChem-03192523492D

 39 42  0     0  0  0  0  0  0999 V2000
    6.6353    1.0500    0.0000 F   0  0  0  0  0  0  0  0  0  0  0  0
    7.2566    2.9511    0.0000 O   0  0  0  0  0  0  0  0  0  0  0  0
    4.6783   -0.9719    0.0000 N   0  0  0  0  0  0  0  0  0  0  0  0
    5.2619   -0.1671    0.0000 N   0  0  0  0  0  0  0  0  0  0  0  0
    2.8660   -1.1671    0.0000 N   0  0  0  0  0  0  0  0  0  0  0  0
    2.0000    0.3329    0.0000 N   0  0  0  0  0  0  0  0  0  0  0  0
    2.8660    1.8329    0.0000 N   0  0  0  0  0  0  0  0  0  0  0  0
    4.9889   -1.9224    0.0000 C   0  0  0  0  0  0  0  0  0  0  0  0
    4.4026   -2.7324    0.0000 C   0  0  0  0  0  0  0  0  0  0  0  0
    5.9405   -2.2298    0.0000 C   0  0  0  0  0  0  0  0  0  0  0  0
    4.9917   -3.5404    0.0000 C   0  0  0  0  0  0  0  0  0  0  0  0
    5.9422   -3.2298    0.0000 C   0  0  0  0  0  0  0  0  0  0  0  0
    3.7320   -0.6671    0.0000 C   0  0  0  0  0  0  0  0  0  0  0  0
    3.7320    0.3329    0.0000 C   0  0  0  0  0  0  0  0  0  0  0  0
    4.6783    0.6376    0.0000 C   0  0  0  0  0  0  0  0  0  0  0  0
    4.9889    1.5881    0.0000 C   0  0  0  0  0  0  0  0  0  0  0  0
    2.8660    0.8329    0.0000 C   0  0  0  0  0  0  0  0  0  0  0  0
    2.0000   -0.6671    0.0000 C   0  0  0  0  0  0  0  0  0  0  0  0
    5.9674    1.7944    0.0000 C   0  0  0  0  0  0  0  0  0  0  0  0
    4.3211    2.3324    0.0000 C   0  0  0  0  0  0  0  0  0  0  0  0
    6.2781    2.7449    0.0000 C   0  0  0  0  0  0  0  0  0  0  0  0
    4.6318    3.2830    0.0000 C   0  0  0  0  0  0  0  0  0  0  0  0
    5.6103    3.4892    0.0000 C   0  0  0  0  0  0  0  0  0  0  0  0
    5.4266   -1.4832    0.0000 H   0  0  0  0  0  0  0  0  0  0  0  0
    3.9411   -2.3184    0.0000 H   0  0  0  0  0  0  0  0  0  0  0  0
    3.9425   -3.1481    0.0000 H   0  0  0  0  0  0  0  0  0  0  0  0
    6.5572   -2.2935    0.0000 H   0  0  0  0  0  0  0  0  0  0  0  0
    6.0684   -1.6231    0.0000 H   0  0  0  0  0  0  0  0  0  0  0  0
    4.4553   -3.8513    0.0000 H   0  0  0  0  0  0  0  0  0  0  0  0
    5.2449   -4.1064    0.0000 H   0  0  0  0  0  0  0  0  0  0  0  0
    6.0722   -3.8360    0.0000 H   0  0  0  0  0  0  0  0  0  0  0  0
    6.5587   -3.1639    0.0000 H   0  0  0  0  0  0  0  0  0  0  0  0
    1.4631   -0.9771    0.0000 H   0  0  0  0  0  0  0  0  0  0  0  0
    3.7144    2.2046    0.0000 H   0  0  0  0  0  0  0  0  0  0  0  0
    2.3291    2.1429    0.0000 H   0  0  0  0  0  0  0  0  0  0  0  0
    3.4030    2.1429    0.0000 H   0  0  0  0  0  0  0  0  0  0  0  0
    4.2177    3.7444    0.0000 H   0  0  0  0  0  0  0  0  0  0  0  0
    5.8029    4.0785    0.0000 H   0  0  0  0  0  0  0  0  0  0  0  0
    7.4492    3.5404    0.0000 H   0  0  0  0  0  0  0  0  0  0  0  0
  1 19  1  0  0  0  0
  2 21  1  0  0  0  0
  2 39  1  0  0  0  0
  3  4  1  0  0  0  0
  3  8  1  0  0  0  0
  3 13  1  0  0  0  0
  4 15  2  0  0  0  0
  5 13  2  0  0  0  0
  5 18  1  0  0  0  0
  6 17  1  0  0  0  0
  6 18  2  0  0  0  0
  7 17  1  0  0  0  0
  7 35  1  0  0  0  0
  7 36  1  0  0  0  0
  8  9  1  0  0  0  0
  8 10  1  0  0  0  0
  8 24  1  0  0  0  0
  9 11  1  0  0  0  0
  9 25  1  0  0  0  0
  9 26  1  0  0  0  0
 10 12  1  0  0  0  0
 10 27  1  0  0  0  0
 10 28  1  0  0  0  0
 11 12  1  0  0  0  0
 11 29  1  0  0  0  0
 11 30  1  0  0  0  0
 12 31  1  0  0  0  0
 12 32  1  0  0  0  0
 13 14  1  0  0  0  0
 14 15  1  0  0  0  0
 14 17  2  0  0  0  0
 15 16  1  0  0  0  0
 16 19  2  0  0  0  0
 16 20  1  0  0  0  0
 18 33  1  0  0  0  0
 19 21  1  0  0  0  0
 20 22  2  0  0  0  0
 20 34  1  0  0  0  0
 21 23  2  0  0  0  0
 22 23  1  0  0  0  0
 22 37  1  0  0  0  0
 23 38  1  0  0  0  0
M  END
> <PUBCHEM_COMPOUND_CID>
24905181

> <PUBCHEM_COMPOUND_CANONICALIZED>
1

> <PUBCHEM_CACTVS_COMPLEXITY>
421

> <PUBCHEM_CACTVS_HBOND_ACCEPTOR>
6

> <PUBCHEM_CACTVS_HBOND_DONOR>
2

> <PUBCHEM_CACTVS_ROTATABLE_BOND>
2

> <PUBCHEM_CACTVS_SUBSKEYS>
AAADceB7oQAAAAAAAAAAAAAAAAAAAeIAAAA8QAAAAAAAAFgB/AAAHwAYCAAADCzBnww1tt5IEgCiAyZjZACShCsxoKAd2CAuTJiILqLC2dOE9AhsyBPI2CewwPAOAAABAAAAAAAAAAIAAAAAAAAAAAAAAA==

> <PUBCHEM_IUPAC_OPENEYE_NAME>
3-(4-amino-1-cyclopentyl-pyrazolo[3,4-d]pyrimidin-3-yl)-2-fluoro-phenol

> <PUBCHEM_IUPAC_CAS_NAME>
3-(4-amino-1-cyclopentyl-3-pyrazolo[3,4-d]pyrimidinyl)-2-fluorophenol

> <PUBCHEM_IUPAC_NAME_MARKUP>
3-(4-amino-1-cyclopentylpyrazolo[3,4-d]pyrimidin-3-yl)-2-fluorophenol

> <PUBCHEM_IUPAC_NAME>
3-(4-amino-1-cyclopentylpyrazolo[3,4-d]pyrimidin-3-yl)-2-fluorophenol

> <PUBCHEM_IUPAC_SYSTEMATIC_NAME>
3-(4-azanyl-1-cyclopentyl-pyrazolo[3,4-d]pyrimidin-3-yl)-2-fluoranyl-phenol

> <PUBCHEM_IUPAC_TRADITIONAL_NAME>
3-(4-amino-1-cyclopentyl-pyrazolo[3,4-d]pyrimidin-3-yl)-2-fluoro-phenol

> <PUBCHEM_IUPAC_INCHI>
InChI=1S/C16H16FN5O/c17-13-10(6-3-7-11(13)23)14-12-15(18)19-8-20-16(12)22(21-14)9-4-1-2-5-9/h3,6-9,23H,1-2,4-5H2,(H2,18,19,20)

> <PUBCHEM_IUPAC_INCHIKEY>
CHPHDLQQSCKHOK-UHFFFAOYSA-N

> <PUBCHEM_XLOGP3_AA>
2.4

> <PUBCHEM_EXACT_MASS>
313.13388831

> <PUBCHEM_MOLECULAR_FORMULA>
C16H16FN5O

> <PUBCHEM_MOLECULAR_WEIGHT>
313.33

> <PUBCHEM_SMILES>
C1CCC(C1)N2C3=NC=NC(=C3C(=N2)C4=C(C(=CC=C4)O)F)N

> <PUBCHEM_OPENEYE_CAN_SMILES>
C1CCC(C1)N2C3=NC=NC(=C3C(=N2)C4=C(C(=CC=C4)O)F)N

> <PUBCHEM_OPENEYE_ISO_SMILES>
C1CCC(C1)N2C3=NC=NC(=C3C(=N2)C4=C(C(=CC=C4)O)F)N

> <PUBCHEM_CACTVS_TPSA>
89.9

> <PUBCHEM_MONOISOTOPIC_WEIGHT>
313.13388831

> <PUBCHEM_TOTAL_CHARGE>
0

> <PUBCHEM_HEAVY_ATOM_COUNT>
23

> <PUBCHEM_ATOM_DEF_STEREO_COUNT>
0

> <PUBCHEM_ATOM_UDEF_STEREO_COUNT>
0

> <PUBCHEM_BOND_DEF_STEREO_COUNT>
0

> <PUBCHEM_BOND_UDEF_STEREO_COUNT>
0

> <PUBCHEM_ISOTOPIC_ATOM_COUNT>
0

> <PUBCHEM_COMPONENT_COUNT>
1

> <PUBCHEM_CACTVS_TAUTO_COUNT>
-1

> <PUBCHEM_COORDINATE_TYPE>
1
5
255

> <PUBCHEM_BONDANNOTATIONS>
13  14  8
14  15  8
14  17  8
16  19  8
16  20  8
19  21  8
20  22  8
21  23  8
22  23  8
3  13  8
3  4  8
4  15  8
5  13  8
5  18  8
6  17  8
6  18  8

$$$$
