44328612
  -OEChem-03202507352D

 49 51  0     0  0  0  0  0  0999 V2000
    8.6097    2.5310    0.0000 O   0  0  0  0  0  0  0  0  0  0  0  0
    6.5406    5.3788    0.0000 O   0  0  0  0  0  0  0  0  0  0  0  0
    6.5406    1.8587    0.0000 N   0  0  0  0  0  0  0  0  0  0  0  0
    4.6783    2.8140    0.0000 N   0  0  0  0  0  0  0  0  0  0  0  0
    7.8007    4.1188    0.0000 N   0  0  0  0  0  0  0  0  0  0  0  0
    7.9811   -4.9181    0.0000 N   0  0  0  0  0  0  0  0  0  0  0  0
    7.5699   -0.5786    0.0000 C   0  0  0  0  0  0  0  0  0  0  0  0
    7.2609   -1.5297    0.0000 C   0  0  0  0  0  0  0  0  0  0  0  0
    6.9008    0.1645    0.0000 C   0  0  0  0  0  0  0  0  0  0  0  0
    7.9300   -2.2728    0.0000 C   0  0  0  0  0  0  0  0  0  0  0  0
    7.2098    1.1156    0.0000 C   0  0  0  0  0  0  0  0  0  0  0  0
    7.6210   -3.2239    0.0000 C   0  0  0  0  0  0  0  0  0  0  0  0
    6.8497    2.8098    0.0000 C   0  0  0  0  0  0  0  0  0  0  0  0
    6.2619    3.6188    0.0000 C   0  0  0  0  0  0  0  0  0  0  0  0
    5.2619    3.6188    0.0000 C   0  0  0  0  0  0  0  0  0  0  0  0
    8.2901   -3.9670    0.0000 C   0  0  0  0  0  0  0  0  0  0  0  0
    3.7320    3.1188    0.0000 C   0  0  0  0  0  0  0  0  0  0  0  0
    3.7320    4.1188    0.0000 C   0  0  0  0  0  0  0  0  0  0  0  0
    4.6783    4.4235    0.0000 C   0  0  0  0  0  0  0  0  0  0  0  0
    7.8007    3.1188    0.0000 C   0  0  0  0  0  0  0  0  0  0  0  0
    6.8497    4.4278    0.0000 C   0  0  0  0  0  0  0  0  0  0  0  0
    2.8660    2.6188    0.0000 C   0  0  0  0  0  0  0  0  0  0  0  0
    2.8660    4.6188    0.0000 C   0  0  0  0  0  0  0  0  0  0  0  0
    2.0000    3.1188    0.0000 C   0  0  0  0  0  0  0  0  0  0  0  0
    2.0000    4.1188    0.0000 C   0  0  0  0  0  0  0  0  0  0  0  0
    8.1173   -0.8697    0.0000 H   0  0  0  0  0  0  0  0  0  0  0  0
    7.9516   -0.0901    0.0000 H   0  0  0  0  0  0  0  0  0  0  0  0
    6.7134   -1.2386    0.0000 H   0  0  0  0  0  0  0  0  0  0  0  0
    6.8792   -2.0183    0.0000 H   0  0  0  0  0  0  0  0  0  0  0  0
    6.3533    0.4556    0.0000 H   0  0  0  0  0  0  0  0  0  0  0  0
    6.5190   -0.3241    0.0000 H   0  0  0  0  0  0  0  0  0  0  0  0
    8.4774   -2.5639    0.0000 H   0  0  0  0  0  0  0  0  0  0  0  0
    8.3117   -1.7843    0.0000 H   0  0  0  0  0  0  0  0  0  0  0  0
    7.7572    0.8245    0.0000 H   0  0  0  0  0  0  0  0  0  0  0  0
    7.5915    1.6041    0.0000 H   0  0  0  0  0  0  0  0  0  0  0  0
    7.0736   -2.9328    0.0000 H   0  0  0  0  0  0  0  0  0  0  0  0
    7.2393   -3.7125    0.0000 H   0  0  0  0  0  0  0  0  0  0  0  0
    5.9342    1.7298    0.0000 H   0  0  0  0  0  0  0  0  0  0  0  0
    8.8376   -4.2581    0.0000 H   0  0  0  0  0  0  0  0  0  0  0  0
    8.6718   -3.4785    0.0000 H   0  0  0  0  0  0  0  0  0  0  0  0
    4.8709    2.2247    0.0000 H   0  0  0  0  0  0  0  0  0  0  0  0
    4.8709    5.0128    0.0000 H   0  0  0  0  0  0  0  0  0  0  0  0
    8.3023    4.4832    0.0000 H   0  0  0  0  0  0  0  0  0  0  0  0
    2.8660    1.9988    0.0000 H   0  0  0  0  0  0  0  0  0  0  0  0
    2.8660    5.2388    0.0000 H   0  0  0  0  0  0  0  0  0  0  0  0
    8.3960   -5.3788    0.0000 H   0  0  0  0  0  0  0  0  0  0  0  0
    7.3746   -5.0470    0.0000 H   0  0  0  0  0  0  0  0  0  0  0  0
    1.4631    2.8088    0.0000 H   0  0  0  0  0  0  0  0  0  0  0  0
    1.4631    4.4288    0.0000 H   0  0  0  0  0  0  0  0  0  0  0  0
  1 20  2  0  0  0  0
  2 21  2  0  0  0  0
  3 11  1  0  0  0  0
  3 13  1  0  0  0  0
  3 38  1  0  0  0  0
  4 15  1  0  0  0  0
  4 17  1  0  0  0  0
  4 41  1  0  0  0  0
  5 20  1  0  0  0  0
  5 21  1  0  0  0  0
  5 43  1  0  0  0  0
  6 16  1  0  0  0  0
  6 46  1  0  0  0  0
  6 47  1  0  0  0  0
  7  8  1  0  0  0  0
  7  9  1  0  0  0  0
  7 26  1  0  0  0  0
  7 27  1  0  0  0  0
  8 10  1  0  0  0  0
  8 28  1  0  0  0  0
  8 29  1  0  0  0  0
  9 11  1  0  0  0  0
  9 30  1  0  0  0  0
  9 31  1  0  0  0  0
 10 12  1  0  0  0  0
 10 32  1  0  0  0  0
 10 33  1  0  0  0  0
 11 34  1  0  0  0  0
 11 35  1  0  0  0  0
 12 16  1  0  0  0  0
 12 36  1  0  0  0  0
 12 37  1  0  0  0  0
 13 14  2  0  0  0  0
 13 20  1  0  0  0  0
 14 15  1  0  0  0  0
 14 21  1  0  0  0  0
 15 19  2  0  0  0  0
 16 39  1  0  0  0  0
 16 40  1  0  0  0  0
 17 18  1  0  0  0  0
 17 22  2  0  0  0  0
 18 19  1  0  0  0  0
 18 23  2  0  0  0  0
 19 42  1  0  0  0  0
 22 24  1  0  0  0  0
 22 44  1  0  0  0  0
 23 25  1  0  0  0  0
 23 45  1  0  0  0  0
 24 25  2  0  0  0  0
 24 48  1  0  0  0  0
 25 49  1  0  0  0  0
M  END
> <PUBCHEM_COMPOUND_CID>
44328612

> <PUBCHEM_COMPOUND_CANONICALIZED>
1

> <PUBCHEM_CACTVS_COMPLEXITY>
532

> <PUBCHEM_CACTVS_HBOND_ACCEPTOR>
4

> <PUBCHEM_CACTVS_HBOND_DONOR>
4

> <PUBCHEM_CACTVS_ROTATABLE_BOND>
9

> <PUBCHEM_CACTVS_SUBSKEYS>
AAADceB7sAAAAAAAAAAAAAAAAAAAAWIAAAAwAAAAAAAAAFgB8AAAHgAQAAAADAjBngQwwPLJkACoAyVyVACCgCAhAiAImaG4ZNgIYPrA1bGUIAhglCDIyUcYiICOAAAAAAACAAAAAAAAAAQAAAAAAAAAAA==

> <PUBCHEM_IUPAC_OPENEYE_NAME>
3-(7-aminoheptylamino)-4-(1H-indol-2-yl)pyrrole-2,5-dione

> <PUBCHEM_IUPAC_CAS_NAME>
3-(7-aminoheptylamino)-4-(1H-indol-2-yl)pyrrole-2,5-dione

> <PUBCHEM_IUPAC_NAME_MARKUP>
3-(7-aminoheptylamino)-4-(1<I>H</I>-indol-2-yl)pyrrole-2,5-dione

> <PUBCHEM_IUPAC_NAME>
3-(7-aminoheptylamino)-4-(1H-indol-2-yl)pyrrole-2,5-dione

> <PUBCHEM_IUPAC_SYSTEMATIC_NAME>
3-(7-azanylheptylamino)-4-(1H-indol-2-yl)pyrrole-2,5-dione

> <PUBCHEM_IUPAC_TRADITIONAL_NAME>
3-(7-aminoheptylamino)-4-(1H-indol-2-yl)-3-pyrroline-2,5-quinone

> <PUBCHEM_IUPAC_INCHI>
InChI=1S/C19H24N4O2/c20-10-6-2-1-3-7-11-21-17-16(18(24)23-19(17)25)15-12-13-8-4-5-9-14(13)22-15/h4-5,8-9,12,22H,1-3,6-7,10-11,20H2,(H2,21,23,24,25)

> <PUBCHEM_IUPAC_INCHIKEY>
LQMJAXFVYZGUMM-UHFFFAOYSA-N

> <PUBCHEM_XLOGP3_AA>
2.3

> <PUBCHEM_EXACT_MASS>
340.18992602

> <PUBCHEM_MOLECULAR_FORMULA>
C19H24N4O2

> <PUBCHEM_MOLECULAR_WEIGHT>
340.4

> <PUBCHEM_SMILES>
C1=CC=C2C(=C1)C=C(N2)C3=C(C(=O)NC3=O)NCCCCCCCN

> <PUBCHEM_OPENEYE_CAN_SMILES>
C1=CC=C2C(=C1)C=C(N2)C3=C(C(=O)NC3=O)NCCCCCCCN

> <PUBCHEM_OPENEYE_ISO_SMILES>
C1=CC=C2C(=C1)C=C(N2)C3=C(C(=O)NC3=O)NCCCCCCCN

> <PUBCHEM_CACTVS_TPSA>
100

> <PUBCHEM_MONOISOTOPIC_WEIGHT>
340.18992602

> <PUBCHEM_TOTAL_CHARGE>
0

> <PUBCHEM_HEAVY_ATOM_COUNT>
25

> <PUBCHEM_ATOM_DEF_STEREO_COUNT>
0

> <PUBCHEM_ATOM_UDEF_STEREO_COUNT>
0

> <PUBCHEM_BOND_DEF_STEREO_COUNT>
0

> <PUBCHEM_BOND_UDEF_STEREO_COUNT>
0

> <PUBCHEM_ISOTOPIC_ATOM_COUNT>
0

> <PUBCHEM_COMPONENT_COUNT>
1

> <PUBCHEM_CACTVS_TAUTO_COUNT>
-1

> <PUBCHEM_COORDINATE_TYPE>
1
5
255

> <PUBCHEM_BONDANNOTATIONS>
15  19  8
17  18  8
17  22  8
18  19  8
18  23  8
22  24  8
23  25  8
24  25  8
4  15  8
4  17  8

$$$$
