49830657
  -OEChem-03202503162D

 72 75  0     0  0  0  0  0  0999 V2000
    9.0635   -0.5418    0.0000 O   0  0  0  0  0  0  0  0  0  0  0  0
    5.5717    2.1948    0.0000 O   0  0  0  0  0  0  0  0  0  0  0  0
    9.9261   -4.8146    0.0000 O   0  0  0  0  0  0  0  0  0  0  0  0
    5.4672   -0.7998    0.0000 N   0  0  0  0  0  0  0  0  0  0  0  0
    4.4890   -1.0077    0.0000 N   0  0  0  0  0  0  0  0  0  0  0  0
    6.4378    0.6948    0.0000 N   0  0  0  0  0  0  0  0  0  0  0  0
    9.5987   -2.1891    0.0000 N   0  0  0  0  0  0  0  0  0  0  0  0
    7.3038    2.1948    0.0000 N   0  0  0  0  0  0  0  0  0  0  0  0
   12.2440   -2.2402    0.0000 N   0  0  0  0  0  0  0  0  0  0  0  0
    2.9945   -0.0371    0.0000 C   0  0  0  0  0  0  0  0  0  0  0  0
    3.9890   -0.1417    0.0000 C   0  0  0  0  0  0  0  0  0  0  0  0
    2.0000    0.0674    0.0000 C   0  0  0  0  0  0  0  0  0  0  0  0
    2.8900   -1.0316    0.0000 C   0  0  0  0  0  0  0  0  0  0  0  0
    3.0990    0.9574    0.0000 C   0  0  0  0  0  0  0  0  0  0  0  0
    4.6582    0.6015    0.0000 C   0  0  0  0  0  0  0  0  0  0  0  0
    5.5717    0.1948    0.0000 C   0  0  0  0  0  0  0  0  0  0  0  0
    6.2103   -1.4689    0.0000 C   0  0  0  0  0  0  0  0  0  0  0  0
    7.1614   -1.1599    0.0000 C   0  0  0  0  0  0  0  0  0  0  0  0
    7.9045   -1.8290    0.0000 C   0  0  0  0  0  0  0  0  0  0  0  0
    6.0024   -2.4470    0.0000 C   0  0  0  0  0  0  0  0  0  0  0  0
    8.8556   -1.5200    0.0000 C   0  0  0  0  0  0  0  0  0  0  0  0
   10.5498   -1.8801    0.0000 C   0  0  0  0  0  0  0  0  0  0  0  0
    9.3908   -3.1673    0.0000 C   0  0  0  0  0  0  0  0  0  0  0  0
    7.6966   -2.8072    0.0000 C   0  0  0  0  0  0  0  0  0  0  0  0
    6.7456   -3.1162    0.0000 C   0  0  0  0  0  0  0  0  0  0  0  0
    6.4378    1.6948    0.0000 C   0  0  0  0  0  0  0  0  0  0  0  0
   11.2929   -2.5492    0.0000 C   0  0  0  0  0  0  0  0  0  0  0  0
    7.3038    3.1948    0.0000 C   0  0  0  0  0  0  0  0  0  0  0  0
   10.1340   -3.8364    0.0000 C   0  0  0  0  0  0  0  0  0  0  0  0
    8.1698    3.6948    0.0000 C   0  0  0  0  0  0  0  0  0  0  0  0
    8.1698    4.6948    0.0000 C   0  0  0  0  0  0  0  0  0  0  0  0
    6.4378    3.6948    0.0000 C   0  0  0  0  0  0  0  0  0  0  0  0
    9.0637    3.1601    0.0000 C   0  0  0  0  0  0  0  0  0  0  0  0
    7.3038    5.1948    0.0000 C   0  0  0  0  0  0  0  0  0  0  0  0
    6.4378    4.6948    0.0000 C   0  0  0  0  0  0  0  0  0  0  0  0
    9.0637    5.2294    0.0000 C   0  0  0  0  0  0  0  0  0  0  0  0
    9.9698    3.6739    0.0000 C   0  0  0  0  0  0  0  0  0  0  0  0
    9.9698    4.7156    0.0000 C   0  0  0  0  0  0  0  0  0  0  0  0
    2.0648    0.6840    0.0000 H   0  0  0  0  0  0  0  0  0  0  0  0
    1.3834    0.1322    0.0000 H   0  0  0  0  0  0  0  0  0  0  0  0
    1.9352   -0.5492    0.0000 H   0  0  0  0  0  0  0  0  0  0  0  0
    2.2734   -0.9668    0.0000 H   0  0  0  0  0  0  0  0  0  0  0  0
    2.8252   -1.6482    0.0000 H   0  0  0  0  0  0  0  0  0  0  0  0
    3.5066   -1.0965    0.0000 H   0  0  0  0  0  0  0  0  0  0  0  0
    3.7156    0.8926    0.0000 H   0  0  0  0  0  0  0  0  0  0  0  0
    3.1639    1.5740    0.0000 H   0  0  0  0  0  0  0  0  0  0  0  0
    2.4824    1.0222    0.0000 H   0  0  0  0  0  0  0  0  0  0  0  0
    4.5293    1.2079    0.0000 H   0  0  0  0  0  0  0  0  0  0  0  0
    6.9747    0.3848    0.0000 H   0  0  0  0  0  0  0  0  0  0  0  0
    7.2903   -0.5534    0.0000 H   0  0  0  0  0  0  0  0  0  0  0  0
    5.4128   -2.6386    0.0000 H   0  0  0  0  0  0  0  0  0  0  0  0
   11.0384   -1.4984    0.0000 H   0  0  0  0  0  0  0  0  0  0  0  0
   10.2587   -1.3327    0.0000 H   0  0  0  0  0  0  0  0  0  0  0  0
    8.8160   -2.9350    0.0000 H   0  0  0  0  0  0  0  0  0  0  0  0
    9.0623   -3.6931    0.0000 H   0  0  0  0  0  0  0  0  0  0  0  0
    8.1574   -3.2220    0.0000 H   0  0  0  0  0  0  0  0  0  0  0  0
    6.6167   -3.7226    0.0000 H   0  0  0  0  0  0  0  0  0  0  0  0
   10.8044   -2.9310    0.0000 H   0  0  0  0  0  0  0  0  0  0  0  0
   11.5840   -3.0967    0.0000 H   0  0  0  0  0  0  0  0  0  0  0  0
    7.8407    1.8848    0.0000 H   0  0  0  0  0  0  0  0  0  0  0  0
   10.7088   -4.0687    0.0000 H   0  0  0  0  0  0  0  0  0  0  0  0
   10.4625   -3.3106    0.0000 H   0  0  0  0  0  0  0  0  0  0  0  0
    5.9008    3.3848    0.0000 H   0  0  0  0  0  0  0  0  0  0  0  0
    9.0566    2.5401    0.0000 H   0  0  0  0  0  0  0  0  0  0  0  0
    7.3038    5.8148    0.0000 H   0  0  0  0  0  0  0  0  0  0  0  0
   12.7047   -2.6551    0.0000 H   0  0  0  0  0  0  0  0  0  0  0  0
   12.3729   -1.6338    0.0000 H   0  0  0  0  0  0  0  0  0  0  0  0
    5.9008    5.0047    0.0000 H   0  0  0  0  0  0  0  0  0  0  0  0
    9.0566    5.8494    0.0000 H   0  0  0  0  0  0  0  0  0  0  0  0
   10.5055    3.3619    0.0000 H   0  0  0  0  0  0  0  0  0  0  0  0
   10.5055    5.0276    0.0000 H   0  0  0  0  0  0  0  0  0  0  0  0
   10.3868   -5.2294    0.0000 H   0  0  0  0  0  0  0  0  0  0  0  0
  1 21  2  0  0  0  0
  2 26  2  0  0  0  0
  3 29  1  0  0  0  0
  3 72  1  0  0  0  0
  4  5  1  0  0  0  0
  4 16  1  0  0  0  0
  4 17  1  0  0  0  0
  5 11  2  0  0  0  0
  6 16  1  0  0  0  0
  6 26  1  0  0  0  0
  6 49  1  0  0  0  0
  7 21  1  0  0  0  0
  7 22  1  0  0  0  0
  7 23  1  0  0  0  0
  8 26  1  0  0  0  0
  8 28  1  0  0  0  0
  8 60  1  0  0  0  0
  9 27  1  0  0  0  0
  9 66  1  0  0  0  0
  9 67  1  0  0  0  0
 10 11  1  0  0  0  0
 10 12  1  0  0  0  0
 10 13  1  0  0  0  0
 10 14  1  0  0  0  0
 11 15  1  0  0  0  0
 12 39  1  0  0  0  0
 12 40  1  0  0  0  0
 12 41  1  0  0  0  0
 13 42  1  0  0  0  0
 13 43  1  0  0  0  0
 13 44  1  0  0  0  0
 14 45  1  0  0  0  0
 14 46  1  0  0  0  0
 14 47  1  0  0  0  0
 15 16  2  0  0  0  0
 15 48  1  0  0  0  0
 17 18  1  0  0  0  0
 17 20  2  0  0  0  0
 18 19  2  0  0  0  0
 18 50  1  0  0  0  0
 19 21  1  0  0  0  0
 19 24  1  0  0  0  0
 20 25  1  0  0  0  0
 20 51  1  0  0  0  0
 22 27  1  0  0  0  0
 22 52  1  0  0  0  0
 22 53  1  0  0  0  0
 23 29  1  0  0  0  0
 23 54  1  0  0  0  0
 23 55  1  0  0  0  0
 24 25  2  0  0  0  0
 24 56  1  0  0  0  0
 25 57  1  0  0  0  0
 27 58  1  0  0  0  0
 27 59  1  0  0  0  0
 28 30  1  0  0  0  0
 28 32  2  0  0  0  0
 29 61  1  0  0  0  0
 29 62  1  0  0  0  0
 30 31  1  0  0  0  0
 30 33  2  0  0  0  0
 31 34  1  0  0  0  0
 31 36  2  0  0  0  0
 32 35  1  0  0  0  0
 32 63  1  0  0  0  0
 33 37  1  0  0  0  0
 33 64  1  0  0  0  0
 34 35  2  0  0  0  0
 34 65  1  0  0  0  0
 35 68  1  0  0  0  0
 36 38  1  0  0  0  0
 36 69  1  0  0  0  0
 37 38  2  0  0  0  0
 37 70  1  0  0  0  0
 38 71  1  0  0  0  0
M  END
> <PUBCHEM_COMPOUND_CID>
49830657

> <PUBCHEM_COMPOUND_CANONICALIZED>
1

> <PUBCHEM_CACTVS_COMPLEXITY>
789

> <PUBCHEM_CACTVS_HBOND_ACCEPTOR>
5

> <PUBCHEM_CACTVS_HBOND_DONOR>
4

> <PUBCHEM_CACTVS_ROTATABLE_BOND>
9

> <PUBCHEM_CACTVS_SUBSKEYS>
AAADcfB7sAAAAAAAAAAAAAAAAAAAAWAAAAAwYMAAAAAAAADB1AAAHgAYCAAADgjhngYz8NPIAgCqAydydACSBCMlAgAdmKE4ZNiKcHLA1dGUpQh4nwLYyacciICPgAAAQAASAAAAAACAACQAAAAAAAAAAA==

> <PUBCHEM_IUPAC_OPENEYE_NAME>
N-(2-aminoethyl)-3-[3-tert-butyl-5-(1-naphthylcarbamoylamino)pyrazol-1-yl]-N-(2-hydroxyethyl)benzamide

> <PUBCHEM_IUPAC_CAS_NAME>
N-(2-aminoethyl)-3-[3-tert-butyl-5-[[(1-naphthalenylamino)-oxomethyl]amino]-1-pyrazolyl]-N-(2-hydroxyethyl)benzamide

> <PUBCHEM_IUPAC_NAME_MARKUP>
<I>N</I>-(2-aminoethyl)-3-[3-<I>tert</I>-butyl-5-(naphthalen-1-ylcarbamoylamino)pyrazol-1-yl]-<I>N</I>-(2-hydroxyethyl)benzamide

> <PUBCHEM_IUPAC_NAME>
N-(2-aminoethyl)-3-[3-tert-butyl-5-(naphthalen-1-ylcarbamoylamino)pyrazol-1-yl]-N-(2-hydroxyethyl)benzamide

> <PUBCHEM_IUPAC_SYSTEMATIC_NAME>
N-(2-azanylethyl)-3-[3-tert-butyl-5-(naphthalen-1-ylcarbamoylamino)pyrazol-1-yl]-N-(2-hydroxyethyl)benzamide

> <PUBCHEM_IUPAC_TRADITIONAL_NAME>
N-(2-aminoethyl)-3-[3-tert-butyl-5-(1-naphthylcarbamoylamino)pyrazol-1-yl]-N-(2-hydroxyethyl)benzamide

> <PUBCHEM_IUPAC_INCHI>
InChI=1S/C29H34N6O3/c1-29(2,3)25-19-26(32-28(38)31-24-13-7-9-20-8-4-5-12-23(20)24)35(33-25)22-11-6-10-21(18-22)27(37)34(15-14-30)16-17-36/h4-13,18-19,36H,14-17,30H2,1-3H3,(H2,31,32,38)

> <PUBCHEM_IUPAC_INCHIKEY>
XMEBXAAIDQRNQS-UHFFFAOYSA-N

> <PUBCHEM_XLOGP3_AA>
3.6

> <PUBCHEM_EXACT_MASS>
514.26923897

> <PUBCHEM_MOLECULAR_FORMULA>
C29H34N6O3

> <PUBCHEM_MOLECULAR_WEIGHT>
514.6

> <PUBCHEM_SMILES>
CC(C)(C)C1=NN(C(=C1)NC(=O)NC2=CC=CC3=CC=CC=C32)C4=CC=CC(=C4)C(=O)N(CCN)CCO

> <PUBCHEM_OPENEYE_CAN_SMILES>
CC(C)(C)C1=NN(C(=C1)NC(=O)NC2=CC=CC3=CC=CC=C32)C4=CC=CC(=C4)C(=O)N(CCN)CCO

> <PUBCHEM_OPENEYE_ISO_SMILES>
CC(C)(C)C1=NN(C(=C1)NC(=O)NC2=CC=CC3=CC=CC=C32)C4=CC=CC(=C4)C(=O)N(CCN)CCO

> <PUBCHEM_CACTVS_TPSA>
126

> <PUBCHEM_MONOISOTOPIC_WEIGHT>
514.26923897

> <PUBCHEM_TOTAL_CHARGE>
0

> <PUBCHEM_HEAVY_ATOM_COUNT>
38

> <PUBCHEM_ATOM_DEF_STEREO_COUNT>
0

> <PUBCHEM_ATOM_UDEF_STEREO_COUNT>
0

> <PUBCHEM_BOND_DEF_STEREO_COUNT>
0

> <PUBCHEM_BOND_UDEF_STEREO_COUNT>
0

> <PUBCHEM_ISOTOPIC_ATOM_COUNT>
0

> <PUBCHEM_COMPONENT_COUNT>
1

> <PUBCHEM_CACTVS_TAUTO_COUNT>
-1

> <PUBCHEM_COORDINATE_TYPE>
1
5
255

> <PUBCHEM_BONDANNOTATIONS>
11  15  8
15  16  8
17  18  8
17  20  8
18  19  8
19  24  8
20  25  8
24  25  8
28  30  8
28  32  8
30  31  8
30  33  8
31  34  8
31  36  8
32  35  8
33  37  8
34  35  8
36  38  8
37  38  8
4  16  8
4  5  8
5  11  8

$$$$
