135566832
  -OEChem-03202501102D

 44 47  0     0  0  0  0  0  0999 V2000
    7.0740   -3.3226    0.0000 O   0  0  0  0  0  0  0  0  0  0  0  0
    2.4608    0.0291    0.0000 O   0  0  0  0  0  0  0  0  0  0  0  0
   11.8066    3.6326    0.0000 O   0  0  0  0  0  0  0  0  0  0  0  0
    6.5740    2.2162    0.0000 N   0  0  0  0  0  0  0  0  0  0  0  0
    8.8341    0.9561    0.0000 N   0  0  0  0  0  0  0  0  0  0  0  0
    7.5740    2.2162    0.0000 N   0  0  0  0  0  0  0  0  0  0  0  0
    7.0740    0.6774    0.0000 C   0  0  0  0  0  0  0  0  0  0  0  0
    6.2650    1.2651    0.0000 C   0  0  0  0  0  0  0  0  0  0  0  0
    7.8830    1.2651    0.0000 C   0  0  0  0  0  0  0  0  0  0  0  0
    7.0740   -0.3226    0.0000 C   0  0  0  0  0  0  0  0  0  0  0  0
    5.3139    0.9561    0.0000 C   0  0  0  0  0  0  0  0  0  0  0  0
    6.2080   -0.8226    0.0000 C   0  0  0  0  0  0  0  0  0  0  0  0
    7.9400   -0.8226    0.0000 C   0  0  0  0  0  0  0  0  0  0  0  0
    5.1060   -0.0220    0.0000 C   0  0  0  0  0  0  0  0  0  0  0  0
    4.5708    1.6252    0.0000 C   0  0  0  0  0  0  0  0  0  0  0  0
    9.5772    1.6252    0.0000 C   0  0  0  0  0  0  0  0  0  0  0  0
    6.2080   -1.8226    0.0000 C   0  0  0  0  0  0  0  0  0  0  0  0
    7.9400   -1.8226    0.0000 C   0  0  0  0  0  0  0  0  0  0  0  0
    4.1550   -0.3310    0.0000 C   0  0  0  0  0  0  0  0  0  0  0  0
    3.6197    1.3162    0.0000 C   0  0  0  0  0  0  0  0  0  0  0  0
    7.0740   -2.3226    0.0000 C   0  0  0  0  0  0  0  0  0  0  0  0
    3.4118    0.3381    0.0000 C   0  0  0  0  0  0  0  0  0  0  0  0
    9.3693    2.6034    0.0000 C   0  0  0  0  0  0  0  0  0  0  0  0
   10.5283    1.3162    0.0000 C   0  0  0  0  0  0  0  0  0  0  0  0
   10.1124    3.2725    0.0000 C   0  0  0  0  0  0  0  0  0  0  0  0
   11.2714    1.9854    0.0000 C   0  0  0  0  0  0  0  0  0  0  0  0
   11.0635    2.9635    0.0000 C   0  0  0  0  0  0  0  0  0  0  0  0
    6.2096    2.7178    0.0000 H   0  0  0  0  0  0  0  0  0  0  0  0
    8.9630    0.3497    0.0000 H   0  0  0  0  0  0  0  0  0  0  0  0
    5.6710   -0.5126    0.0000 H   0  0  0  0  0  0  0  0  0  0  0  0
    8.4770   -0.5126    0.0000 H   0  0  0  0  0  0  0  0  0  0  0  0
    5.5668   -0.4369    0.0000 H   0  0  0  0  0  0  0  0  0  0  0  0
    4.6997    2.2317    0.0000 H   0  0  0  0  0  0  0  0  0  0  0  0
    5.6710   -2.1326    0.0000 H   0  0  0  0  0  0  0  0  0  0  0  0
    8.4770   -2.1326    0.0000 H   0  0  0  0  0  0  0  0  0  0  0  0
    4.0260   -0.9375    0.0000 H   0  0  0  0  0  0  0  0  0  0  0  0
    3.1590    1.7311    0.0000 H   0  0  0  0  0  0  0  0  0  0  0  0
    8.7796    2.7950    0.0000 H   0  0  0  0  0  0  0  0  0  0  0  0
   10.6572    0.7098    0.0000 H   0  0  0  0  0  0  0  0  0  0  0  0
    9.9835    3.8790    0.0000 H   0  0  0  0  0  0  0  0  0  0  0  0
   11.8611    1.7938    0.0000 H   0  0  0  0  0  0  0  0  0  0  0  0
    7.6109   -3.6326    0.0000 H   0  0  0  0  0  0  0  0  0  0  0  0
    2.0000    0.4439    0.0000 H   0  0  0  0  0  0  0  0  0  0  0  0
   12.3963    3.4410    0.0000 H   0  0  0  0  0  0  0  0  0  0  0  0
  1 21  1  0  0  0  0
  1 42  1  0  0  0  0
  2 22  1  0  0  0  0
  2 43  1  0  0  0  0
  3 27  1  0  0  0  0
  3 44  1  0  0  0  0
  4  6  1  0  0  0  0
  4  8  1  0  0  0  0
  4 28  1  0  0  0  0
  5  9  1  0  0  0  0
  5 16  1  0  0  0  0
  5 29  1  0  0  0  0
  6  9  2  0  0  0  0
  7  8  2  0  0  0  0
  7  9  1  0  0  0  0
  7 10  1  0  0  0  0
  8 11  1  0  0  0  0
 10 12  2  0  0  0  0
 10 13  1  0  0  0  0
 11 14  2  0  0  0  0
 11 15  1  0  0  0  0
 12 17  1  0  0  0  0
 12 30  1  0  0  0  0
 13 18  2  0  0  0  0
 13 31  1  0  0  0  0
 14 19  1  0  0  0  0
 14 32  1  0  0  0  0
 15 20  2  0  0  0  0
 15 33  1  0  0  0  0
 16 23  2  0  0  0  0
 16 24  1  0  0  0  0
 17 21  2  0  0  0  0
 17 34  1  0  0  0  0
 18 21  1  0  0  0  0
 18 35  1  0  0  0  0
 19 22  2  0  0  0  0
 19 36  1  0  0  0  0
 20 22  1  0  0  0  0
 20 37  1  0  0  0  0
 23 25  1  0  0  0  0
 23 38  1  0  0  0  0
 24 26  2  0  0  0  0
 24 39  1  0  0  0  0
 25 27  2  0  0  0  0
 25 40  1  0  0  0  0
 26 27  1  0  0  0  0
 26 41  1  0  0  0  0
M  END
> <PUBCHEM_COMPOUND_CID>
135566832

> <PUBCHEM_COMPOUND_CANONICALIZED>
1

> <PUBCHEM_CACTVS_COMPLEXITY>
456

> <PUBCHEM_CACTVS_HBOND_ACCEPTOR>
5

> <PUBCHEM_CACTVS_HBOND_DONOR>
5

> <PUBCHEM_CACTVS_ROTATABLE_BOND>
4

> <PUBCHEM_CACTVS_SUBSKEYS>
AAADceB7MAAAAAAAAAAAAAAAAAAAAWAAAAAwYMAAAAAAAAAB1AAAHgAYCAAADAyBngAx9pLjAgCiAyZiYACSBAIhIgAduSAmbJiIJuLC2dOE9Ah02BPI2Cew0PEOoEAAAAAAAABAgAAAAAAAAAAAAAAAAA==

> <PUBCHEM_IUPAC_OPENEYE_NAME>
4-[3-(4-hydroxyanilino)-5-(4-hydroxyphenyl)-1H-pyrazol-4-yl]phenol

> <PUBCHEM_IUPAC_CAS_NAME>
4-[3-(4-hydroxyanilino)-5-(4-hydroxyphenyl)-1H-pyrazol-4-yl]phenol

> <PUBCHEM_IUPAC_NAME_MARKUP>
4-[3-(4-hydroxyanilino)-5-(4-hydroxyphenyl)-1<I>H</I>-pyrazol-4-yl]phenol

> <PUBCHEM_IUPAC_NAME>
4-[3-(4-hydroxyanilino)-5-(4-hydroxyphenyl)-1H-pyrazol-4-yl]phenol

> <PUBCHEM_IUPAC_SYSTEMATIC_NAME>
4-[5-(4-hydroxyphenyl)-3-[(4-hydroxyphenyl)amino]-1H-pyrazol-4-yl]phenol

> <PUBCHEM_IUPAC_TRADITIONAL_NAME>
4-[3-(4-hydroxyanilino)-5-(4-hydroxyphenyl)-1H-pyrazol-4-yl]phenol

> <PUBCHEM_IUPAC_INCHI>
InChI=1S/C21H17N3O3/c25-16-7-1-13(2-8-16)19-20(14-3-9-17(26)10-4-14)23-24-21(19)22-15-5-11-18(27)12-6-15/h1-12,25-27H,(H2,22,23,24)

> <PUBCHEM_IUPAC_INCHIKEY>
VIJBEUTVNBPGIU-UHFFFAOYSA-N

> <PUBCHEM_XLOGP3_AA>
4.3

> <PUBCHEM_EXACT_MASS>
359.12699141

> <PUBCHEM_MOLECULAR_FORMULA>
C21H17N3O3

> <PUBCHEM_MOLECULAR_WEIGHT>
359.4

> <PUBCHEM_SMILES>
C1=CC(=CC=C1C2=C(NN=C2NC3=CC=C(C=C3)O)C4=CC=C(C=C4)O)O

> <PUBCHEM_OPENEYE_CAN_SMILES>
C1=CC(=CC=C1C2=C(NN=C2NC3=CC=C(C=C3)O)C4=CC=C(C=C4)O)O

> <PUBCHEM_OPENEYE_ISO_SMILES>
C1=CC(=CC=C1C2=C(NN=C2NC3=CC=C(C=C3)O)C4=CC=C(C=C4)O)O

> <PUBCHEM_CACTVS_TPSA>
101

> <PUBCHEM_MONOISOTOPIC_WEIGHT>
359.12699141

> <PUBCHEM_TOTAL_CHARGE>
0

> <PUBCHEM_HEAVY_ATOM_COUNT>
27

> <PUBCHEM_ATOM_DEF_STEREO_COUNT>
0

> <PUBCHEM_ATOM_UDEF_STEREO_COUNT>
0

> <PUBCHEM_BOND_DEF_STEREO_COUNT>
0

> <PUBCHEM_BOND_UDEF_STEREO_COUNT>
0

> <PUBCHEM_ISOTOPIC_ATOM_COUNT>
0

> <PUBCHEM_COMPONENT_COUNT>
1

> <PUBCHEM_CACTVS_TAUTO_COUNT>
-1

> <PUBCHEM_COORDINATE_TYPE>
1
5
255

> <PUBCHEM_BONDANNOTATIONS>
10  12  8
10  13  8
11  14  8
11  15  8
12  17  8
13  18  8
14  19  8
15  20  8
16  23  8
16  24  8
17  21  8
18  21  8
19  22  8
20  22  8
23  25  8
24  26  8
25  27  8
26  27  8
4  6  8
4  8  8
6  9  8
7  8  8
7  9  8

$$$$
