44328576
  -OEChem-03202507332D

 59 61  0     1  0  0  0  0  0999 V2000
    9.2683   -2.7661    0.0000 O   0  0  0  0  0  0  0  0  0  0  0  0
    8.6097    3.5240    0.0000 O   0  0  0  0  0  0  0  0  0  0  0  0
    6.5406    6.3719    0.0000 O   0  0  0  0  0  0  0  0  0  0  0  0
    5.4068   -6.2430    0.0000 O   0  0  0  0  0  0  0  0  0  0  0  0
    5.0467   -4.5488    0.0000 O   0  0  0  0  0  0  0  0  0  0  0  0
    6.5406    2.8518    0.0000 N   0  0  0  0  0  0  0  0  0  0  0  0
    7.6210   -2.2309    0.0000 N   0  0  0  0  0  0  0  0  0  0  0  0
    4.6783    3.8071    0.0000 N   0  0  0  0  0  0  0  0  0  0  0  0
    7.8007    5.1118    0.0000 N   0  0  0  0  0  0  0  0  0  0  0  0
    8.6502   -4.6682    0.0000 N   0  0  0  0  0  0  0  0  0  0  0  0
    7.5699    0.4144    0.0000 C   0  0  0  0  0  0  0  0  0  0  0  0
    6.9008    1.1576    0.0000 C   0  0  0  0  0  0  0  0  0  0  0  0
    7.2609   -0.5367    0.0000 C   0  0  0  0  0  0  0  0  0  0  0  0
    7.2098    2.1086    0.0000 C   0  0  0  0  0  0  0  0  0  0  0  0
    7.9300   -1.2798    0.0000 C   0  0  0  0  0  0  0  0  0  0  0  0
    6.8497    3.8028    0.0000 C   0  0  0  0  0  0  0  0  0  0  0  0
    6.2619    4.6118    0.0000 C   0  0  0  0  0  0  0  0  0  0  0  0
    5.2619    4.6118    0.0000 C   0  0  0  0  0  0  0  0  0  0  0  0
    7.9811   -3.9251    0.0000 C   0  0  3  0  0  0  0  0  0  0  0  0
    7.0030   -4.1330    0.0000 C   0  0  0  0  0  0  0  0  0  0  0  0
    8.2901   -2.9740    0.0000 C   0  0  0  0  0  0  0  0  0  0  0  0
    3.7320    4.1118    0.0000 C   0  0  0  0  0  0  0  0  0  0  0  0
    3.7320    5.1118    0.0000 C   0  0  0  0  0  0  0  0  0  0  0  0
    4.6783    5.4166    0.0000 C   0  0  0  0  0  0  0  0  0  0  0  0
    7.8007    4.1118    0.0000 C   0  0  0  0  0  0  0  0  0  0  0  0
    6.8497    5.4208    0.0000 C   0  0  0  0  0  0  0  0  0  0  0  0
    6.6939   -5.0840    0.0000 C   0  0  0  0  0  0  0  0  0  0  0  0
    2.8660    3.6118    0.0000 C   0  0  0  0  0  0  0  0  0  0  0  0
    2.8660    5.6118    0.0000 C   0  0  0  0  0  0  0  0  0  0  0  0
    2.0000    4.1118    0.0000 C   0  0  0  0  0  0  0  0  0  0  0  0
    2.0000    5.1118    0.0000 C   0  0  0  0  0  0  0  0  0  0  0  0
    5.7158   -5.2919    0.0000 C   0  0  0  0  0  0  0  0  0  0  0  0
    8.1173    0.1233    0.0000 H   0  0  0  0  0  0  0  0  0  0  0  0
    7.9516    0.9030    0.0000 H   0  0  0  0  0  0  0  0  0  0  0  0
    6.3533    1.4486    0.0000 H   0  0  0  0  0  0  0  0  0  0  0  0
    6.5190    0.6690    0.0000 H   0  0  0  0  0  0  0  0  0  0  0  0
    6.7134   -0.2456    0.0000 H   0  0  0  0  0  0  0  0  0  0  0  0
    6.8792   -1.0252    0.0000 H   0  0  0  0  0  0  0  0  0  0  0  0
    7.7572    1.8175    0.0000 H   0  0  0  0  0  0  0  0  0  0  0  0
    7.5915    2.5972    0.0000 H   0  0  0  0  0  0  0  0  0  0  0  0
    8.4774   -1.5709    0.0000 H   0  0  0  0  0  0  0  0  0  0  0  0
    8.3117   -0.7912    0.0000 H   0  0  0  0  0  0  0  0  0  0  0  0
    5.9342    2.7228    0.0000 H   0  0  0  0  0  0  0  0  0  0  0  0
    7.7895   -4.5147    0.0000 H   0  0  0  0  0  0  0  0  0  0  0  0
    7.0145   -2.3598    0.0000 H   0  0  0  0  0  0  0  0  0  0  0  0
    6.9813   -3.5133    0.0000 H   0  0  0  0  0  0  0  0  0  0  0  0
    6.3890   -4.0467    0.0000 H   0  0  0  0  0  0  0  0  0  0  0  0
    4.8709    3.2178    0.0000 H   0  0  0  0  0  0  0  0  0  0  0  0
    4.8709    6.0059    0.0000 H   0  0  0  0  0  0  0  0  0  0  0  0
    8.3023    5.4762    0.0000 H   0  0  0  0  0  0  0  0  0  0  0  0
    6.7156   -5.7036    0.0000 H   0  0  0  0  0  0  0  0  0  0  0  0
    7.3079   -5.1703    0.0000 H   0  0  0  0  0  0  0  0  0  0  0  0
    2.8660    2.9918    0.0000 H   0  0  0  0  0  0  0  0  0  0  0  0
    2.8660    6.2318    0.0000 H   0  0  0  0  0  0  0  0  0  0  0  0
    8.4586   -5.2579    0.0000 H   0  0  0  0  0  0  0  0  0  0  0  0
    9.2567   -4.5393    0.0000 H   0  0  0  0  0  0  0  0  0  0  0  0
    1.4631    3.8018    0.0000 H   0  0  0  0  0  0  0  0  0  0  0  0
    1.4631    5.4218    0.0000 H   0  0  0  0  0  0  0  0  0  0  0  0
    4.8003   -6.3719    0.0000 H   0  0  0  0  0  0  0  0  0  0  0  0
  1 21  2  0  0  0  0
  2 25  2  0  0  0  0
  3 26  2  0  0  0  0
  4 32  1  0  0  0  0
  4 59  1  0  0  0  0
  5 32  2  0  0  0  0
  6 14  1  0  0  0  0
  6 16  1  0  0  0  0
  6 43  1  0  0  0  0
  7 15  1  0  0  0  0
  7 21  1  0  0  0  0
  7 45  1  0  0  0  0
  8 18  1  0  0  0  0
  8 22  1  0  0  0  0
  8 48  1  0  0  0  0
  9 25  1  0  0  0  0
  9 26  1  0  0  0  0
  9 50  1  0  0  0  0
 10 19  1  0  0  0  0
 10 55  1  0  0  0  0
 10 56  1  0  0  0  0
 11 12  1  0  0  0  0
 11 13  1  0  0  0  0
 11 33  1  0  0  0  0
 11 34  1  0  0  0  0
 12 14  1  0  0  0  0
 12 35  1  0  0  0  0
 12 36  1  0  0  0  0
 13 15  1  0  0  0  0
 13 37  1  0  0  0  0
 13 38  1  0  0  0  0
 14 39  1  0  0  0  0
 14 40  1  0  0  0  0
 15 41  1  0  0  0  0
 15 42  1  0  0  0  0
 16 17  2  0  0  0  0
 16 25  1  0  0  0  0
 17 18  1  0  0  0  0
 17 26  1  0  0  0  0
 18 24  2  0  0  0  0
 19 20  1  0  0  0  0
 19 21  1  0  0  0  0
 19 44  1  0  0  0  0
 20 27  1  0  0  0  0
 20 46  1  0  0  0  0
 20 47  1  0  0  0  0
 22 23  1  0  0  0  0
 22 28  2  0  0  0  0
 23 24  1  0  0  0  0
 23 29  2  0  0  0  0
 24 49  1  0  0  0  0
 27 32  1  0  0  0  0
 27 51  1  0  0  0  0
 27 52  1  0  0  0  0
 28 30  1  0  0  0  0
 28 53  1  0  0  0  0
 29 31  1  0  0  0  0
 29 54  1  0  0  0  0
 30 31  2  0  0  0  0
 30 57  1  0  0  0  0
 31 58  1  0  0  0  0
M  END
> <PUBCHEM_COMPOUND_CID>
44328576

> <PUBCHEM_COMPOUND_CANONICALIZED>
1

> <PUBCHEM_CACTVS_COMPLEXITY>
768

> <PUBCHEM_CACTVS_HBOND_ACCEPTOR>
7

> <PUBCHEM_CACTVS_HBOND_DONOR>
6

> <PUBCHEM_CACTVS_ROTATABLE_BOND>
12

> <PUBCHEM_CACTVS_SUBSKEYS>
AAADceB7uAAAAAAAAAAAAAAAAAAAAWIAAAAwAAAAAAAAAFgB8AAAHgAQCAAADCjBngQwyPLJkgCoAyXyXACCgCAhAiAImaG4ZNgIYPrA1bGUYAhkliDIyUe8n4KOAAAAAAACAAAAAAAAAAQAAAAAAAAAAA==

> <PUBCHEM_IUPAC_OPENEYE_NAME>
4-amino-5-[5-[[4-(1H-indol-2-yl)-2,5-dioxo-pyrrol-3-yl]amino]pentylamino]-5-oxo-pentanoic acid

> <PUBCHEM_IUPAC_CAS_NAME>
4-amino-5-[5-[[4-(1H-indol-2-yl)-2,5-dioxo-3-pyrrolyl]amino]pentylamino]-5-oxopentanoic acid

> <PUBCHEM_IUPAC_NAME_MARKUP>
4-amino-5-[5-[[4-(1<I>H</I>-indol-2-yl)-2,5-dioxopyrrol-3-yl]amino]pentylamino]-5-oxopentanoic acid

> <PUBCHEM_IUPAC_NAME>
4-amino-5-[5-[[4-(1H-indol-2-yl)-2,5-dioxopyrrol-3-yl]amino]pentylamino]-5-oxopentanoic acid

> <PUBCHEM_IUPAC_SYSTEMATIC_NAME>
4-azanyl-5-[5-[[4-(1H-indol-2-yl)-2,5-bis(oxidanylidene)pyrrol-3-yl]amino]pentylamino]-5-oxidanylidene-pentanoic acid

> <PUBCHEM_IUPAC_TRADITIONAL_NAME>
4-amino-5-[5-[[4-(1H-indol-2-yl)-2,5-diketo-3-pyrrolin-3-yl]amino]pentylamino]-5-keto-valeric acid

> <PUBCHEM_IUPAC_INCHI>
InChI=1S/C22H27N5O5/c23-14(8-9-17(28)29)20(30)25-11-5-1-4-10-24-19-18(21(31)27-22(19)32)16-12-13-6-2-3-7-15(13)26-16/h2-3,6-7,12,14,26H,1,4-5,8-11,23H2,(H,25,30)(H,28,29)(H2,24,27,31,32)

> <PUBCHEM_IUPAC_INCHIKEY>
DMUBFFHXYNTSRV-UHFFFAOYSA-N

> <PUBCHEM_XLOGP3_AA>
-1.6

> <PUBCHEM_EXACT_MASS>
441.20121898

> <PUBCHEM_MOLECULAR_FORMULA>
C22H27N5O5

> <PUBCHEM_MOLECULAR_WEIGHT>
441.5

> <PUBCHEM_SMILES>
C1=CC=C2C(=C1)C=C(N2)C3=C(C(=O)NC3=O)NCCCCCNC(=O)C(CCC(=O)O)N

> <PUBCHEM_OPENEYE_CAN_SMILES>
C1=CC=C2C(=C1)C=C(N2)C3=C(C(=O)NC3=O)NCCCCCNC(=O)C(CCC(=O)O)N

> <PUBCHEM_OPENEYE_ISO_SMILES>
C1=CC=C2C(=C1)C=C(N2)C3=C(C(=O)NC3=O)NCCCCCNC(=O)C(CCC(=O)O)N

> <PUBCHEM_CACTVS_TPSA>
166

> <PUBCHEM_MONOISOTOPIC_WEIGHT>
441.20121898

> <PUBCHEM_TOTAL_CHARGE>
0

> <PUBCHEM_HEAVY_ATOM_COUNT>
32

> <PUBCHEM_ATOM_DEF_STEREO_COUNT>
0

> <PUBCHEM_ATOM_UDEF_STEREO_COUNT>
1

> <PUBCHEM_BOND_DEF_STEREO_COUNT>
0

> <PUBCHEM_BOND_UDEF_STEREO_COUNT>
0

> <PUBCHEM_ISOTOPIC_ATOM_COUNT>
0

> <PUBCHEM_COMPONENT_COUNT>
1

> <PUBCHEM_CACTVS_TAUTO_COUNT>
-1

> <PUBCHEM_COORDINATE_TYPE>
1
5
255

> <PUBCHEM_BONDANNOTATIONS>
19  10  3
18  24  8
22  23  8
22  28  8
23  24  8
23  29  8
28  30  8
29  31  8
30  31  8
8  18  8
8  22  8

$$$$
