135485273
  -OEChem-03202503302D

 40 42  0     0  0  0  0  0  0999 V2000
    6.3776    0.7115    0.0000 S   0  0  0  0  0  0  0  0  0  0  0  0
    2.8660   -2.3817    0.0000 O   0  0  0  0  0  0  0  0  0  0  0  0
    4.5981   -3.3817    0.0000 O   0  0  0  0  0  0  0  0  0  0  0  0
    4.8255    2.7819    0.0000 O   0  0  0  0  0  0  0  0  0  0  0  0
    6.5468    2.3207    0.0000 N   0  0  0  0  0  0  0  0  0  0  0  0
    8.0413    1.3502    0.0000 N   0  0  0  0  0  0  0  0  0  0  0  0
    4.5981   -0.3817    0.0000 C   0  0  0  0  0  0  0  0  0  0  0  0
    4.5981    0.6183    0.0000 C   0  0  0  0  0  0  0  0  0  0  0  0
    5.4641    1.1183    0.0000 C   0  0  0  0  0  0  0  0  0  0  0  0
    3.7320   -0.8817    0.0000 C   0  0  0  0  0  0  0  0  0  0  0  0
    3.7320   -1.8817    0.0000 C   0  0  0  0  0  0  0  0  0  0  0  0
    5.4641   -0.8817    0.0000 C   0  0  0  0  0  0  0  0  0  0  0  0
    4.5981   -2.3817    0.0000 C   0  0  0  0  0  0  0  0  0  0  0  0
    5.4641   -1.8817    0.0000 C   0  0  0  0  0  0  0  0  0  0  0  0
    5.5686    2.1128    0.0000 C   0  0  0  0  0  0  0  0  0  0  0  0
    7.0468    1.4547    0.0000 C   0  0  0  0  0  0  0  0  0  0  0  0
    8.6291    2.1592    0.0000 C   0  0  0  0  0  0  0  0  0  0  0  0
    8.2224    3.0727    0.0000 C   0  0  0  0  0  0  0  0  0  0  0  0
    9.6236    2.0546    0.0000 C   0  0  0  0  0  0  0  0  0  0  0  0
    8.8101    3.8817    0.0000 C   0  0  0  0  0  0  0  0  0  0  0  0
   10.2114    2.8637    0.0000 C   0  0  0  0  0  0  0  0  0  0  0  0
    2.0000   -1.8817    0.0000 C   0  0  0  0  0  0  0  0  0  0  0  0
    9.8047    3.7772    0.0000 C   0  0  0  0  0  0  0  0  0  0  0  0
    5.4641   -3.8817    0.0000 C   0  0  0  0  0  0  0  0  0  0  0  0
    4.0611    0.9283    0.0000 H   0  0  0  0  0  0  0  0  0  0  0  0
    3.1951   -0.5717    0.0000 H   0  0  0  0  0  0  0  0  0  0  0  0
    6.0010   -0.5717    0.0000 H   0  0  0  0  0  0  0  0  0  0  0  0
    6.0010   -2.1917    0.0000 H   0  0  0  0  0  0  0  0  0  0  0  0
    6.7990    2.8871    0.0000 H   0  0  0  0  0  0  0  0  0  0  0  0
    7.6057    3.1375    0.0000 H   0  0  0  0  0  0  0  0  0  0  0  0
    9.8758    1.4882    0.0000 H   0  0  0  0  0  0  0  0  0  0  0  0
    8.5580    4.4481    0.0000 H   0  0  0  0  0  0  0  0  0  0  0  0
   10.8280    2.7988    0.0000 H   0  0  0  0  0  0  0  0  0  0  0  0
   10.1691    4.2788    0.0000 H   0  0  0  0  0  0  0  0  0  0  0  0
    2.3100   -1.3448    0.0000 H   0  0  0  0  0  0  0  0  0  0  0  0
    1.4631   -1.5717    0.0000 H   0  0  0  0  0  0  0  0  0  0  0  0
    1.6900   -2.4187    0.0000 H   0  0  0  0  0  0  0  0  0  0  0  0
    5.1541   -4.4187    0.0000 H   0  0  0  0  0  0  0  0  0  0  0  0
    6.0010   -4.1917    0.0000 H   0  0  0  0  0  0  0  0  0  0  0  0
    5.7741   -3.3448    0.0000 H   0  0  0  0  0  0  0  0  0  0  0  0
  1  9  1  0  0  0  0
  1 16  1  0  0  0  0
  2 11  1  0  0  0  0
  2 22  1  0  0  0  0
  3 13  1  0  0  0  0
  3 24  1  0  0  0  0
  4 15  2  0  0  0  0
  5 15  1  0  0  0  0
  5 16  1  0  0  0  0
  5 29  1  0  0  0  0
  6 16  2  0  0  0  0
  6 17  1  0  0  0  0
  7  8  1  0  0  0  0
  7 10  2  0  0  0  0
  7 12  1  0  0  0  0
  8  9  2  3  0  0  0
  8 25  1  0  0  0  0
  9 15  1  0  0  0  0
 10 11  1  0  0  0  0
 10 26  1  0  0  0  0
 11 13  2  0  0  0  0
 12 14  2  0  0  0  0
 12 27  1  0  0  0  0
 13 14  1  0  0  0  0
 14 28  1  0  0  0  0
 17 18  2  0  0  0  0
 17 19  1  0  0  0  0
 18 20  1  0  0  0  0
 18 30  1  0  0  0  0
 19 21  2  0  0  0  0
 19 31  1  0  0  0  0
 20 23  2  0  0  0  0
 20 32  1  0  0  0  0
 21 23  1  0  0  0  0
 21 33  1  0  0  0  0
 22 35  1  0  0  0  0
 22 36  1  0  0  0  0
 22 37  1  0  0  0  0
 23 34  1  0  0  0  0
 24 38  1  0  0  0  0
 24 39  1  0  0  0  0
 24 40  1  0  0  0  0
M  END
> <PUBCHEM_COMPOUND_CID>
135485273

> <PUBCHEM_COMPOUND_CANONICALIZED>
1

> <PUBCHEM_CACTVS_COMPLEXITY>
514

> <PUBCHEM_CACTVS_HBOND_ACCEPTOR>
5

> <PUBCHEM_CACTVS_HBOND_DONOR>
1

> <PUBCHEM_CACTVS_ROTATABLE_BOND>
4

> <PUBCHEM_CACTVS_SUBSKEYS>
AAADceB7MABAAAAAAAAAAAAAAAAAAWAAAAAwYAAAAAAAAAABQAAAHgQQAAAADAyB2AIzxoLABAioAiVSdACCGAFgIhAJiAAG7MgNJiKEuZuAMCJkwBEK6YeQwBAOIAABAAAAQABAAAIAAACAAAAAAAAAAA==

> <PUBCHEM_IUPAC_OPENEYE_NAME>
5-[(3,4-dimethoxyphenyl)methylene]-2-phenylimino-thiazolidin-4-one

> <PUBCHEM_IUPAC_CAS_NAME>
5-[(3,4-dimethoxyphenyl)methylidene]-2-phenylimino-4-thiazolidinone

> <PUBCHEM_IUPAC_NAME_MARKUP>
5-[(3,4-dimethoxyphenyl)methylidene]-2-phenylimino-1,3-thiazolidin-4-one

> <PUBCHEM_IUPAC_NAME>
5-[(3,4-dimethoxyphenyl)methylidene]-2-phenylimino-1,3-thiazolidin-4-one

> <PUBCHEM_IUPAC_SYSTEMATIC_NAME>
5-[(3,4-dimethoxyphenyl)methylidene]-2-phenylimino-1,3-thiazolidin-4-one

> <PUBCHEM_IUPAC_TRADITIONAL_NAME>
2-phenylimino-5-veratrylidene-thiazolidin-4-one

> <PUBCHEM_IUPAC_INCHI>
InChI=1S/C18H16N2O3S/c1-22-14-9-8-12(10-15(14)23-2)11-16-17(21)20-18(24-16)19-13-6-4-3-5-7-13/h3-11H,1-2H3,(H,19,20,21)

> <PUBCHEM_IUPAC_INCHIKEY>
YCLBAPJEFDBZNN-UHFFFAOYSA-N

> <PUBCHEM_XLOGP3_AA>
4

> <PUBCHEM_EXACT_MASS>
340.08816355

> <PUBCHEM_MOLECULAR_FORMULA>
C18H16N2O3S

> <PUBCHEM_MOLECULAR_WEIGHT>
340.4

> <PUBCHEM_SMILES>
COC1=C(C=C(C=C1)C=C2C(=O)NC(=NC3=CC=CC=C3)S2)OC

> <PUBCHEM_OPENEYE_CAN_SMILES>
COC1=C(C=C(C=C1)C=C2C(=O)NC(=NC3=CC=CC=C3)S2)OC

> <PUBCHEM_OPENEYE_ISO_SMILES>
COC1=C(C=C(C=C1)C=C2C(=O)NC(=NC3=CC=CC=C3)S2)OC

> <PUBCHEM_CACTVS_TPSA>
85.2

> <PUBCHEM_MONOISOTOPIC_WEIGHT>
340.08816355

> <PUBCHEM_TOTAL_CHARGE>
0

> <PUBCHEM_HEAVY_ATOM_COUNT>
24

> <PUBCHEM_ATOM_DEF_STEREO_COUNT>
0

> <PUBCHEM_ATOM_UDEF_STEREO_COUNT>
0

> <PUBCHEM_BOND_DEF_STEREO_COUNT>
0

> <PUBCHEM_BOND_UDEF_STEREO_COUNT>
1

> <PUBCHEM_ISOTOPIC_ATOM_COUNT>
0

> <PUBCHEM_COMPONENT_COUNT>
1

> <PUBCHEM_CACTVS_TAUTO_COUNT>
-1

> <PUBCHEM_COORDINATE_TYPE>
1
5
255

> <PUBCHEM_BONDANNOTATIONS>
10  11  8
11  13  8
12  14  8
13  14  8
17  18  8
17  19  8
18  20  8
19  21  8
20  23  8
21  23  8
7  10  8
7  12  8
8  9  1

$$$$
