9863538
  -OEChem-03202500382D

 42 44  0     0  0  0  0  0  0999 V2000
   10.3312   -4.4050    0.0000 Cl  0  0  0  0  0  0  0  0  0  0  0  0
    2.5369    4.0950    0.0000 O   0  0  0  0  0  0  0  0  0  0  0  0
    4.2690    1.0950    0.0000 N   0  0  0  0  0  0  0  0  0  0  0  0
    3.4030   -0.4050    0.0000 N   0  0  0  0  0  0  0  0  0  0  0  0
    8.5991   -1.4050    0.0000 N   0  0  0  0  0  0  0  0  0  0  0  0
    6.8671   -1.4050    0.0000 N   0  0  0  0  0  0  0  0  0  0  0  0
    6.0010   -2.9050    0.0000 N   0  0  0  0  0  0  0  0  0  0  0  0
    7.7331   -2.9050    0.0000 N   0  0  0  0  0  0  0  0  0  0  0  0
    3.4030    1.5950    0.0000 C   0  0  0  0  0  0  0  0  0  0  0  0
    3.4030    2.5950    0.0000 C   0  0  0  0  0  0  0  0  0  0  0  0
    4.2690    0.0950    0.0000 C   0  0  0  0  0  0  0  0  0  0  0  0
    2.5369    3.0950    0.0000 C   0  0  0  0  0  0  0  0  0  0  0  0
    5.1350   -1.4050    0.0000 C   0  0  0  0  0  0  0  0  0  0  0  0
    5.1350   -0.4050    0.0000 C   0  0  0  0  0  0  0  0  0  0  0  0
    6.0010   -1.9050    0.0000 C   0  0  0  0  0  0  0  0  0  0  0  0
    4.2690   -1.9050    0.0000 C   0  0  0  0  0  0  0  0  0  0  0  0
    3.4030   -1.4050    0.0000 C   0  0  0  0  0  0  0  0  0  0  0  0
    9.4651   -1.9050    0.0000 C   0  0  0  0  0  0  0  0  0  0  0  0
    7.7331   -1.9050    0.0000 C   0  0  0  0  0  0  0  0  0  0  0  0
    9.4651   -2.9050    0.0000 C   0  0  0  0  0  0  0  0  0  0  0  0
   10.3312   -1.4050    0.0000 C   0  0  0  0  0  0  0  0  0  0  0  0
   10.3312   -3.4050    0.0000 C   0  0  0  0  0  0  0  0  0  0  0  0
   11.1972   -1.9050    0.0000 C   0  0  0  0  0  0  0  0  0  0  0  0
    6.8671   -3.4050    0.0000 C   0  0  0  0  0  0  0  0  0  0  0  0
   11.1972   -2.9050    0.0000 C   0  0  0  0  0  0  0  0  0  0  0  0
    2.7924    1.7027    0.0000 H   0  0  0  0  0  0  0  0  0  0  0  0
    3.1909    1.0124    0.0000 H   0  0  0  0  0  0  0  0  0  0  0  0
    4.0135    2.4873    0.0000 H   0  0  0  0  0  0  0  0  0  0  0  0
    3.6150    3.1776    0.0000 H   0  0  0  0  0  0  0  0  0  0  0  0
    4.8059    1.4050    0.0000 H   0  0  0  0  0  0  0  0  0  0  0  0
    1.9264    3.2027    0.0000 H   0  0  0  0  0  0  0  0  0  0  0  0
    2.3249    2.5124    0.0000 H   0  0  0  0  0  0  0  0  0  0  0  0
    5.6720   -0.0950    0.0000 H   0  0  0  0  0  0  0  0  0  0  0  0
    4.2690   -2.5250    0.0000 H   0  0  0  0  0  0  0  0  0  0  0  0
    2.8660   -1.7150    0.0000 H   0  0  0  0  0  0  0  0  0  0  0  0
    8.5991   -0.7850    0.0000 H   0  0  0  0  0  0  0  0  0  0  0  0
    8.9282   -3.2150    0.0000 H   0  0  0  0  0  0  0  0  0  0  0  0
   10.3312   -0.7850    0.0000 H   0  0  0  0  0  0  0  0  0  0  0  0
    2.0000    4.4050    0.0000 H   0  0  0  0  0  0  0  0  0  0  0  0
   11.7341   -1.5950    0.0000 H   0  0  0  0  0  0  0  0  0  0  0  0
    6.8671   -4.0250    0.0000 H   0  0  0  0  0  0  0  0  0  0  0  0
   11.7341   -3.2150    0.0000 H   0  0  0  0  0  0  0  0  0  0  0  0
  1 22  1  0  0  0  0
  2 12  1  0  0  0  0
  2 39  1  0  0  0  0
  3  9  1  0  0  0  0
  3 11  1  0  0  0  0
  3 30  1  0  0  0  0
  4 11  2  0  0  0  0
  4 17  1  0  0  0  0
  5 18  1  0  0  0  0
  5 19  1  0  0  0  0
  5 36  1  0  0  0  0
  6 15  2  0  0  0  0
  6 19  1  0  0  0  0
  7 15  1  0  0  0  0
  7 24  2  0  0  0  0
  8 19  2  0  0  0  0
  8 24  1  0  0  0  0
  9 10  1  0  0  0  0
  9 26  1  0  0  0  0
  9 27  1  0  0  0  0
 10 12  1  0  0  0  0
 10 28  1  0  0  0  0
 10 29  1  0  0  0  0
 11 14  1  0  0  0  0
 12 31  1  0  0  0  0
 12 32  1  0  0  0  0
 13 14  2  0  0  0  0
 13 15  1  0  0  0  0
 13 16  1  0  0  0  0
 14 33  1  0  0  0  0
 16 17  2  0  0  0  0
 16 34  1  0  0  0  0
 17 35  1  0  0  0  0
 18 20  2  0  0  0  0
 18 21  1  0  0  0  0
 20 22  1  0  0  0  0
 20 37  1  0  0  0  0
 21 23  2  0  0  0  0
 21 38  1  0  0  0  0
 22 25  2  0  0  0  0
 23 25  1  0  0  0  0
 23 40  1  0  0  0  0
 24 41  1  0  0  0  0
 25 42  1  0  0  0  0
M  END
> <PUBCHEM_COMPOUND_CID>
9863538

> <PUBCHEM_COMPOUND_CANONICALIZED>
1

> <PUBCHEM_CACTVS_COMPLEXITY>
390

> <PUBCHEM_CACTVS_HBOND_ACCEPTOR>
7

> <PUBCHEM_CACTVS_HBOND_DONOR>
3

> <PUBCHEM_CACTVS_ROTATABLE_BOND>
7

> <PUBCHEM_CACTVS_SUBSKEYS>
AAADceB7oAAEAAAAAAAAAAAAAAAAAAAAAAA8WIAAAAAAAAAB8AAAHgIQCAAADArhmyY98JbIEgCgAjZnZACCgCkxB6AJ2KA4ZpiIOOLBm5GEYAhqkALIyCcQAAAKAAAAAAIAAAAAAAAABAAAAAAAAAAAAA==

> <PUBCHEM_IUPAC_OPENEYE_NAME>
3-[[4-[4-(3-chloroanilino)-1,3,5-triazin-2-yl]-2-pyridyl]amino]propan-1-ol

> <PUBCHEM_IUPAC_CAS_NAME>
3-[[4-[4-(3-chloroanilino)-1,3,5-triazin-2-yl]-2-pyridinyl]amino]-1-propanol

> <PUBCHEM_IUPAC_NAME_MARKUP>
3-[[4-[4-(3-chloroanilino)-1,3,5-triazin-2-yl]pyridin-2-yl]amino]propan-1-ol

> <PUBCHEM_IUPAC_NAME>
3-[[4-[4-(3-chloroanilino)-1,3,5-triazin-2-yl]pyridin-2-yl]amino]propan-1-ol

> <PUBCHEM_IUPAC_SYSTEMATIC_NAME>
3-[[4-[4-[(3-chlorophenyl)amino]-1,3,5-triazin-2-yl]pyridin-2-yl]amino]propan-1-ol

> <PUBCHEM_IUPAC_TRADITIONAL_NAME>
3-[[4-[4-(3-chloroanilino)-s-triazin-2-yl]-2-pyridyl]amino]propan-1-ol

> <PUBCHEM_IUPAC_INCHI>
InChI=1S/C17H17ClN6O/c18-13-3-1-4-14(10-13)23-17-22-11-21-16(24-17)12-5-7-20-15(9-12)19-6-2-8-25/h1,3-5,7,9-11,25H,2,6,8H2,(H,19,20)(H,21,22,23,24)

> <PUBCHEM_IUPAC_INCHIKEY>
AAYPLLWGPJQWCC-UHFFFAOYSA-N

> <PUBCHEM_XLOGP3_AA>
3.6

> <PUBCHEM_EXACT_MASS>
356.1152369

> <PUBCHEM_MOLECULAR_FORMULA>
C17H17ClN6O

> <PUBCHEM_MOLECULAR_WEIGHT>
356.8

> <PUBCHEM_SMILES>
C1=CC(=CC(=C1)Cl)NC2=NC=NC(=N2)C3=CC(=NC=C3)NCCCO

> <PUBCHEM_OPENEYE_CAN_SMILES>
C1=CC(=CC(=C1)Cl)NC2=NC=NC(=N2)C3=CC(=NC=C3)NCCCO

> <PUBCHEM_OPENEYE_ISO_SMILES>
C1=CC(=CC(=C1)Cl)NC2=NC=NC(=N2)C3=CC(=NC=C3)NCCCO

> <PUBCHEM_CACTVS_TPSA>
95.9

> <PUBCHEM_MONOISOTOPIC_WEIGHT>
356.1152369

> <PUBCHEM_TOTAL_CHARGE>
0

> <PUBCHEM_HEAVY_ATOM_COUNT>
25

> <PUBCHEM_ATOM_DEF_STEREO_COUNT>
0

> <PUBCHEM_ATOM_UDEF_STEREO_COUNT>
0

> <PUBCHEM_BOND_DEF_STEREO_COUNT>
0

> <PUBCHEM_BOND_UDEF_STEREO_COUNT>
0

> <PUBCHEM_ISOTOPIC_ATOM_COUNT>
0

> <PUBCHEM_COMPONENT_COUNT>
1

> <PUBCHEM_CACTVS_TAUTO_COUNT>
-1

> <PUBCHEM_COORDINATE_TYPE>
1
5
255

> <PUBCHEM_BONDANNOTATIONS>
11  14  8
13  14  8
13  16  8
16  17  8
18  20  8
18  21  8
20  22  8
21  23  8
22  25  8
23  25  8
4  11  8
4  17  8
6  15  8
6  19  8
7  15  8
7  24  8
8  19  8
8  24  8

$$$$
