24894992
  -OEChem-03202506402D

 63 66  0     0  0  0  0  0  0999 V2000
    4.3211   -2.2809    0.0000 O   0  0  0  0  0  0  0  0  0  0  0  0
    6.7523    3.8677    0.0000 O   0  0  0  0  0  0  0  0  0  0  0  0
    9.3850    1.9132    0.0000 O   0  0  0  0  0  0  0  0  0  0  0  0
    7.3440   -0.8858    0.0000 O   0  0  0  0  0  0  0  0  0  0  0  0
    9.1725   -0.0755    0.0000 O   0  0  0  0  0  0  0  0  0  0  0  0
    4.6783   -0.5861    0.0000 N   0  0  0  0  0  0  0  0  0  0  0  0
    4.9917    3.5920    0.0000 N   0  0  0  0  0  0  0  0  0  0  0  0
    4.6783    1.0234    0.0000 C   0  0  0  0  0  0  0  0  0  0  0  0
    4.9889    1.9739    0.0000 C   0  0  0  0  0  0  0  0  0  0  0  0
    3.7320    0.7187    0.0000 C   0  0  0  0  0  0  0  0  0  0  0  0
    3.7320   -0.2813    0.0000 C   0  0  0  0  0  0  0  0  0  0  0  0
    5.2619    0.2187    0.0000 C   0  0  0  0  0  0  0  0  0  0  0  0
    4.4026    2.7840    0.0000 C   0  0  0  0  0  0  0  0  0  0  0  0
    5.9405    2.2813    0.0000 C   0  0  0  0  0  0  0  0  0  0  0  0
    4.9889   -1.5366    0.0000 C   0  0  0  0  0  0  0  0  0  0  0  0
    4.6318   -3.2314    0.0000 C   0  0  0  0  0  0  0  0  0  0  0  0
    5.9422    3.2813    0.0000 C   0  0  0  0  0  0  0  0  0  0  0  0
    2.8660    1.2187    0.0000 C   0  0  0  0  0  0  0  0  0  0  0  0
    6.7485    1.6921    0.0000 C   0  0  0  0  0  0  0  0  0  0  0  0
    2.8660   -0.7813    0.0000 C   0  0  0  0  0  0  0  0  0  0  0  0
    4.9424   -4.1819    0.0000 C   0  0  0  0  0  0  0  0  0  0  0  0
    3.6812   -3.5421    0.0000 C   0  0  0  0  0  0  0  0  0  0  0  0
    5.5823   -2.9208    0.0000 C   0  0  0  0  0  0  0  0  0  0  0  0
    2.0000    0.7187    0.0000 C   0  0  0  0  0  0  0  0  0  0  0  0
    2.0000   -0.2813    0.0000 C   0  0  0  0  0  0  0  0  0  0  0  0
    6.6423    0.6978    0.0000 C   0  0  0  0  0  0  0  0  0  0  0  0
    7.6628    2.0973    0.0000 C   0  0  0  0  0  0  0  0  0  0  0  0
    8.4708    1.5081    0.0000 C   0  0  0  0  0  0  0  0  0  0  0  0
    7.4503    0.1086    0.0000 C   0  0  0  0  0  0  0  0  0  0  0  0
    8.3645    0.5137    0.0000 C   0  0  0  0  0  0  0  0  0  0  0  0
    9.4913    2.9076    0.0000 C   0  0  0  0  0  0  0  0  0  0  0  0
    8.1520   -1.4750    0.0000 C   0  0  0  0  0  0  0  0  0  0  0  0
   10.0868    0.3297    0.0000 C   0  0  0  0  0  0  0  0  0  0  0  0
    5.8819    0.2187    0.0000 H   0  0  0  0  0  0  0  0  0  0  0  0
    3.9425    3.1996    0.0000 H   0  0  0  0  0  0  0  0  0  0  0  0
    3.9411    2.3699    0.0000 H   0  0  0  0  0  0  0  0  0  0  0  0
    5.3715   -2.0245    0.0000 H   0  0  0  0  0  0  0  0  0  0  0  0
    5.5359   -1.2446    0.0000 H   0  0  0  0  0  0  0  0  0  0  0  0
    4.8012    4.1819    0.0000 H   0  0  0  0  0  0  0  0  0  0  0  0
    2.8660    1.8387    0.0000 H   0  0  0  0  0  0  0  0  0  0  0  0
    2.8660   -1.4013    0.0000 H   0  0  0  0  0  0  0  0  0  0  0  0
    4.3531   -4.3745    0.0000 H   0  0  0  0  0  0  0  0  0  0  0  0
    5.1350   -4.7713    0.0000 H   0  0  0  0  0  0  0  0  0  0  0  0
    5.5317   -3.9893    0.0000 H   0  0  0  0  0  0  0  0  0  0  0  0
    3.4886   -2.9528    0.0000 H   0  0  0  0  0  0  0  0  0  0  0  0
    3.0919   -3.7347    0.0000 H   0  0  0  0  0  0  0  0  0  0  0  0
    3.8738   -4.1314    0.0000 H   0  0  0  0  0  0  0  0  0  0  0  0
    5.7749   -3.5101    0.0000 H   0  0  0  0  0  0  0  0  0  0  0  0
    6.1716   -2.7281    0.0000 H   0  0  0  0  0  0  0  0  0  0  0  0
    5.3897   -2.3314    0.0000 H   0  0  0  0  0  0  0  0  0  0  0  0
    1.4631    1.0287    0.0000 H   0  0  0  0  0  0  0  0  0  0  0  0
    1.4631   -0.5913    0.0000 H   0  0  0  0  0  0  0  0  0  0  0  0
    6.0754    0.4466    0.0000 H   0  0  0  0  0  0  0  0  0  0  0  0
    7.7286    2.7138    0.0000 H   0  0  0  0  0  0  0  0  0  0  0  0
   10.1078    2.8417    0.0000 H   0  0  0  0  0  0  0  0  0  0  0  0
    9.5571    3.5241    0.0000 H   0  0  0  0  0  0  0  0  0  0  0  0
    8.8748    2.9734    0.0000 H   0  0  0  0  0  0  0  0  0  0  0  0
    7.7867   -1.9759    0.0000 H   0  0  0  0  0  0  0  0  0  0  0  0
    8.6530   -1.8402    0.0000 H   0  0  0  0  0  0  0  0  0  0  0  0
    8.5173   -0.9740    0.0000 H   0  0  0  0  0  0  0  0  0  0  0  0
   10.3380   -0.2371    0.0000 H   0  0  0  0  0  0  0  0  0  0  0  0
   10.6536    0.5809    0.0000 H   0  0  0  0  0  0  0  0  0  0  0  0
    9.8356    0.8965    0.0000 H   0  0  0  0  0  0  0  0  0  0  0  0
  1 15  1  0  0  0  0
  1 16  1  0  0  0  0
  2 17  2  0  0  0  0
  3 28  1  0  0  0  0
  3 31  1  0  0  0  0
  4 29  1  0  0  0  0
  4 32  1  0  0  0  0
  5 30  1  0  0  0  0
  5 33  1  0  0  0  0
  6 11  1  0  0  0  0
  6 12  1  0  0  0  0
  6 15  1  0  0  0  0
  7 13  1  0  0  0  0
  7 17  1  0  0  0  0
  7 39  1  0  0  0  0
  8  9  1  0  0  0  0
  8 10  1  0  0  0  0
  8 12  2  0  0  0  0
  9 13  1  0  0  0  0
  9 14  2  0  0  0  0
 10 11  1  0  0  0  0
 10 18  2  0  0  0  0
 11 20  2  0  0  0  0
 12 34  1  0  0  0  0
 13 35  1  0  0  0  0
 13 36  1  0  0  0  0
 14 17  1  0  0  0  0
 14 19  1  0  0  0  0
 15 37  1  0  0  0  0
 15 38  1  0  0  0  0
 16 21  1  0  0  0  0
 16 22  1  0  0  0  0
 16 23  1  0  0  0  0
 18 24  1  0  0  0  0
 18 40  1  0  0  0  0
 19 26  2  0  0  0  0
 19 27  1  0  0  0  0
 20 25  1  0  0  0  0
 20 41  1  0  0  0  0
 21 42  1  0  0  0  0
 21 43  1  0  0  0  0
 21 44  1  0  0  0  0
 22 45  1  0  0  0  0
 22 46  1  0  0  0  0
 22 47  1  0  0  0  0
 23 48  1  0  0  0  0
 23 49  1  0  0  0  0
 23 50  1  0  0  0  0
 24 25  2  0  0  0  0
 24 51  1  0  0  0  0
 25 52  1  0  0  0  0
 26 29  1  0  0  0  0
 26 53  1  0  0  0  0
 27 28  2  0  0  0  0
 27 54  1  0  0  0  0
 28 30  1  0  0  0  0
 29 30  2  0  0  0  0
 31 55  1  0  0  0  0
 31 56  1  0  0  0  0
 31 57  1  0  0  0  0
 32 58  1  0  0  0  0
 32 59  1  0  0  0  0
 32 60  1  0  0  0  0
 33 61  1  0  0  0  0
 33 62  1  0  0  0  0
 33 63  1  0  0  0  0
M  END
> <PUBCHEM_COMPOUND_CID>
24894992

> <PUBCHEM_COMPOUND_CANONICALIZED>
1

> <PUBCHEM_CACTVS_COMPLEXITY>
719

> <PUBCHEM_CACTVS_HBOND_ACCEPTOR>
5

> <PUBCHEM_CACTVS_HBOND_DONOR>
1

> <PUBCHEM_CACTVS_ROTATABLE_BOND>
8

> <PUBCHEM_CACTVS_SUBSKEYS>
AAADceB7OAAAAAAAAAAAAAAAAAAAAWIAAAAwYAAAAAAAAFgB9AAAHgAQAAAADEzBngY+xvPMFACoAzV3VACCiCAxIiAI2KE+7NgNJ/LEtZuMMCplxhXK6QeY/P7OoAABCAACQABAAAIQAASAAAAAAAAAAA==

> <PUBCHEM_IUPAC_OPENEYE_NAME>
3-[1-(tert-butoxymethyl)indol-3-yl]-4-(3,4,5-trimethoxyphenyl)-1,2-dihydropyrrol-5-one

> <PUBCHEM_IUPAC_CAS_NAME>
3-[1-[(2-methylpropan-2-yl)oxymethyl]-3-indolyl]-4-(3,4,5-trimethoxyphenyl)-1,2-dihydropyrrol-5-one

> <PUBCHEM_IUPAC_NAME_MARKUP>
3-[1-[(2-methylpropan-2-yl)oxymethyl]indol-3-yl]-4-(3,4,5-trimethoxyphenyl)-1,2-dihydropyrrol-5-one

> <PUBCHEM_IUPAC_NAME>
3-[1-[(2-methylpropan-2-yl)oxymethyl]indol-3-yl]-4-(3,4,5-trimethoxyphenyl)-1,2-dihydropyrrol-5-one

> <PUBCHEM_IUPAC_SYSTEMATIC_NAME>
3-[1-[(2-methylpropan-2-yl)oxymethyl]indol-3-yl]-4-(3,4,5-trimethoxyphenyl)-1,2-dihydropyrrol-5-one

> <PUBCHEM_IUPAC_TRADITIONAL_NAME>
4-[1-(tert-butoxymethyl)indol-3-yl]-3-(3,4,5-trimethoxyphenyl)-3-pyrrolin-2-one

> <PUBCHEM_IUPAC_INCHI>
InChI=1S/C26H30N2O5/c1-26(2,3)33-15-28-14-19(17-9-7-8-10-20(17)28)18-13-27-25(29)23(18)16-11-21(30-4)24(32-6)22(12-16)31-5/h7-12,14H,13,15H2,1-6H3,(H,27,29)

> <PUBCHEM_IUPAC_INCHIKEY>
ZFKGDYZACMFEDS-UHFFFAOYSA-N

> <PUBCHEM_XLOGP3_AA>
3.3

> <PUBCHEM_EXACT_MASS>
450.21547206

> <PUBCHEM_MOLECULAR_FORMULA>
C26H30N2O5

> <PUBCHEM_MOLECULAR_WEIGHT>
450.5

> <PUBCHEM_SMILES>
CC(C)(C)OCN1C=C(C2=CC=CC=C21)C3=C(C(=O)NC3)C4=CC(=C(C(=C4)OC)OC)OC

> <PUBCHEM_OPENEYE_CAN_SMILES>
CC(C)(C)OCN1C=C(C2=CC=CC=C21)C3=C(C(=O)NC3)C4=CC(=C(C(=C4)OC)OC)OC

> <PUBCHEM_OPENEYE_ISO_SMILES>
CC(C)(C)OCN1C=C(C2=CC=CC=C21)C3=C(C(=O)NC3)C4=CC(=C(C(=C4)OC)OC)OC

> <PUBCHEM_CACTVS_TPSA>
71

> <PUBCHEM_MONOISOTOPIC_WEIGHT>
450.21547206

> <PUBCHEM_TOTAL_CHARGE>
0

> <PUBCHEM_HEAVY_ATOM_COUNT>
33

> <PUBCHEM_ATOM_DEF_STEREO_COUNT>
0

> <PUBCHEM_ATOM_UDEF_STEREO_COUNT>
0

> <PUBCHEM_BOND_DEF_STEREO_COUNT>
0

> <PUBCHEM_BOND_UDEF_STEREO_COUNT>
0

> <PUBCHEM_ISOTOPIC_ATOM_COUNT>
0

> <PUBCHEM_COMPONENT_COUNT>
1

> <PUBCHEM_CACTVS_TAUTO_COUNT>
-1

> <PUBCHEM_COORDINATE_TYPE>
1
5
255

> <PUBCHEM_BONDANNOTATIONS>
10  11  8
10  18  8
11  20  8
18  24  8
19  26  8
19  27  8
20  25  8
24  25  8
26  29  8
27  28  8
28  30  8
29  30  8
6  11  8
6  12  8
8  10  8
8  12  8

$$$$
