49830966
  -OEChem-03202503402D

 51 54  0     1  0  0  0  0  0999 V2000
    2.3660    3.4510    0.0000 F   0  0  0  0  0  0  0  0  0  0  0  0
    2.0000    4.8170    0.0000 F   0  0  0  0  0  0  0  0  0  0  0  0
    3.3660    5.1830    0.0000 F   0  0  0  0  0  0  0  0  0  0  0  0
    6.3301   -0.6830    0.0000 O   0  0  0  0  0  0  0  0  0  0  0  0
    6.3301    1.3170    0.0000 N   0  0  0  0  0  0  0  0  0  0  0  0
   11.3241   -4.1830    0.0000 N   0  0  0  0  0  0  0  0  0  0  0  0
    8.0622   -4.6830    0.0000 N   0  0  0  0  0  0  0  0  0  0  0  0
   10.7404   -4.9877    0.0000 N   0  0  0  0  0  0  0  0  0  0  0  0
    5.4641   -3.1830    0.0000 N   0  0  0  0  0  0  0  0  0  0  0  0
    5.4641    0.8170    0.0000 C   0  0  3  0  0  0  0  0  0  0  0  0
    4.5981    1.3170    0.0000 C   0  0  0  0  0  0  0  0  0  0  0  0
    5.4641   -0.1830    0.0000 C   0  0  0  0  0  0  0  0  0  0  0  0
    4.5981    2.3170    0.0000 C   0  0  0  0  0  0  0  0  0  0  0  0
    3.7320    2.8170    0.0000 C   0  0  0  0  0  0  0  0  0  0  0  0
    5.4641    2.8170    0.0000 C   0  0  0  0  0  0  0  0  0  0  0  0
    3.7320    3.8170    0.0000 C   0  0  0  0  0  0  0  0  0  0  0  0
    9.7942   -3.6830    0.0000 C   0  0  0  0  0  0  0  0  0  0  0  0
    6.3301   -1.6830    0.0000 C   0  0  0  0  0  0  0  0  0  0  0  0
    8.0622   -3.6830    0.0000 C   0  0  0  0  0  0  0  0  0  0  0  0
    7.1962   -3.1830    0.0000 C   0  0  0  0  0  0  0  0  0  0  0  0
   10.7404   -3.3783    0.0000 C   0  0  0  0  0  0  0  0  0  0  0  0
    5.4641    3.8170    0.0000 C   0  0  0  0  0  0  0  0  0  0  0  0
    9.7942   -4.6830    0.0000 C   0  0  0  0  0  0  0  0  0  0  0  0
    8.9282   -3.1830    0.0000 C   0  0  0  0  0  0  0  0  0  0  0  0
    4.5981    4.3170    0.0000 C   0  0  0  0  0  0  0  0  0  0  0  0
    7.1962   -2.1830    0.0000 C   0  0  0  0  0  0  0  0  0  0  0  0
    2.8660    4.3170    0.0000 C   0  0  0  0  0  0  0  0  0  0  0  0
    8.9282   -5.1830    0.0000 C   0  0  0  0  0  0  0  0  0  0  0  0
    5.4641   -2.1830    0.0000 C   0  0  0  0  0  0  0  0  0  0  0  0
    6.3301   -3.6830    0.0000 C   0  0  0  0  0  0  0  0  0  0  0  0
   11.0511   -2.4278    0.0000 C   0  0  0  0  0  0  0  0  0  0  0  0
    5.4641    1.4370    0.0000 H   0  0  0  0  0  0  0  0  0  0  0  0
    3.9875    1.4246    0.0000 H   0  0  0  0  0  0  0  0  0  0  0  0
    4.3860    0.7344    0.0000 H   0  0  0  0  0  0  0  0  0  0  0  0
    4.8535   -0.0754    0.0000 H   0  0  0  0  0  0  0  0  0  0  0  0
    5.2520   -0.7656    0.0000 H   0  0  0  0  0  0  0  0  0  0  0  0
    3.1951    2.5070    0.0000 H   0  0  0  0  0  0  0  0  0  0  0  0
    6.8671    1.0070    0.0000 H   0  0  0  0  0  0  0  0  0  0  0  0
    6.3301    1.9370    0.0000 H   0  0  0  0  0  0  0  0  0  0  0  0
    6.0010    2.5070    0.0000 H   0  0  0  0  0  0  0  0  0  0  0  0
    8.9282   -2.5630    0.0000 H   0  0  0  0  0  0  0  0  0  0  0  0
    6.0010    4.1270    0.0000 H   0  0  0  0  0  0  0  0  0  0  0  0
    4.5981    4.9370    0.0000 H   0  0  0  0  0  0  0  0  0  0  0  0
    7.7331   -1.8730    0.0000 H   0  0  0  0  0  0  0  0  0  0  0  0
    8.9282   -5.8030    0.0000 H   0  0  0  0  0  0  0  0  0  0  0  0
   11.9441   -4.1830    0.0000 H   0  0  0  0  0  0  0  0  0  0  0  0
    4.9272   -1.8730    0.0000 H   0  0  0  0  0  0  0  0  0  0  0  0
    6.3301   -4.3030    0.0000 H   0  0  0  0  0  0  0  0  0  0  0  0
   11.6404   -2.6204    0.0000 H   0  0  0  0  0  0  0  0  0  0  0  0
   11.2437   -1.8384    0.0000 H   0  0  0  0  0  0  0  0  0  0  0  0
   10.4618   -2.2352    0.0000 H   0  0  0  0  0  0  0  0  0  0  0  0
  1 27  1  0  0  0  0
  2 27  1  0  0  0  0
  3 27  1  0  0  0  0
  4 12  1  0  0  0  0
  4 18  1  0  0  0  0
  5 10  1  0  0  0  0
  5 38  1  0  0  0  0
  5 39  1  0  0  0  0
  6  8  1  0  0  0  0
  6 21  1  0  0  0  0
  6 46  1  0  0  0  0
  7 19  1  0  0  0  0
  7 28  2  0  0  0  0
  8 23  2  0  0  0  0
  9 29  1  0  0  0  0
  9 30  2  0  0  0  0
 10 11  1  0  0  0  0
 10 12  1  0  0  0  0
 10 32  1  0  0  0  0
 11 13  1  0  0  0  0
 11 33  1  0  0  0  0
 11 34  1  0  0  0  0
 12 35  1  0  0  0  0
 12 36  1  0  0  0  0
 13 14  2  0  0  0  0
 13 15  1  0  0  0  0
 14 16  1  0  0  0  0
 14 37  1  0  0  0  0
 15 22  2  0  0  0  0
 15 40  1  0  0  0  0
 16 25  2  0  0  0  0
 16 27  1  0  0  0  0
 17 21  2  0  0  0  0
 17 23  1  0  0  0  0
 17 24  1  0  0  0  0
 18 26  1  0  0  0  0
 18 29  2  0  0  0  0
 19 20  1  0  0  0  0
 19 24  2  0  0  0  0
 20 26  2  0  0  0  0
 20 30  1  0  0  0  0
 21 31  1  0  0  0  0
 22 25  1  0  0  0  0
 22 42  1  0  0  0  0
 23 28  1  0  0  0  0
 24 41  1  0  0  0  0
 25 43  1  0  0  0  0
 26 44  1  0  0  0  0
 28 45  1  0  0  0  0
 29 47  1  0  0  0  0
 30 48  1  0  0  0  0
 31 49  1  0  0  0  0
 31 50  1  0  0  0  0
 31 51  1  0  0  0  0
M  END
> <PUBCHEM_COMPOUND_CID>
49830966

> <PUBCHEM_COMPOUND_CANONICALIZED>
1

> <PUBCHEM_CACTVS_COMPLEXITY>
580

> <PUBCHEM_CACTVS_HBOND_ACCEPTOR>
8

> <PUBCHEM_CACTVS_HBOND_DONOR>
2

> <PUBCHEM_CACTVS_ROTATABLE_BOND>
6

> <PUBCHEM_CACTVS_SUBSKEYS>
AAADceB7oYAAAAAAAAAAAAAAAAAAAWAAAAA8WIAAAAAAAFgB/gAAHwAYAAAADCzhnhY+xvJrFACiAzRnRASSjCQxciAY+aA/fJgOZuLE8duXvCjk2BHY6AewwOAOAAACAAAAAAAAAAQAAAAAAAAAAAAAAA==

> <PUBCHEM_IUPAC_OPENEYE_NAME>
1-[[5-(3-methyl-2H-pyrazolo[3,4-c]pyridin-5-yl)-3-pyridyl]oxy]-3-[3-(trifluoromethyl)phenyl]propan-2-amine

> <PUBCHEM_IUPAC_CAS_NAME>
1-[[5-(3-methyl-2H-pyrazolo[3,4-c]pyridin-5-yl)-3-pyridinyl]oxy]-3-[3-(trifluoromethyl)phenyl]-2-propanamine

> <PUBCHEM_IUPAC_NAME_MARKUP>
1-[5-(3-methyl-2<I>H</I>-pyrazolo[3,4-c]pyridin-5-yl)pyridin-3-yl]oxy-3-[3-(trifluoromethyl)phenyl]propan-2-amine

> <PUBCHEM_IUPAC_NAME>
1-[5-(3-methyl-2H-pyrazolo[3,4-c]pyridin-5-yl)pyridin-3-yl]oxy-3-[3-(trifluoromethyl)phenyl]propan-2-amine

> <PUBCHEM_IUPAC_SYSTEMATIC_NAME>
1-[5-(3-methyl-2H-pyrazolo[3,4-c]pyridin-5-yl)pyridin-3-yl]oxy-3-[3-(trifluoromethyl)phenyl]propan-2-amine

> <PUBCHEM_IUPAC_TRADITIONAL_NAME>
[1-[[5-(3-methyl-2H-pyrazolo[3,4-c]pyridin-5-yl)-3-pyridyl]oxymethyl]-2-[3-(trifluoromethyl)phenyl]ethyl]amine

> <PUBCHEM_IUPAC_INCHI>
InChI=1S/C22H20F3N5O/c1-13-19-8-20(28-11-21(19)30-29-13)15-7-18(10-27-9-15)31-12-17(26)6-14-3-2-4-16(5-14)22(23,24)25/h2-5,7-11,17H,6,12,26H2,1H3,(H,29,30)

> <PUBCHEM_IUPAC_INCHIKEY>
UMTWTCVTRDYHQQ-UHFFFAOYSA-N

> <PUBCHEM_XLOGP3_AA>
3.4

> <PUBCHEM_EXACT_MASS>
427.16199476

> <PUBCHEM_MOLECULAR_FORMULA>
C22H20F3N5O

> <PUBCHEM_MOLECULAR_WEIGHT>
427.4

> <PUBCHEM_SMILES>
CC1=C2C=C(N=CC2=NN1)C3=CC(=CN=C3)OCC(CC4=CC(=CC=C4)C(F)(F)F)N

> <PUBCHEM_OPENEYE_CAN_SMILES>
CC1=C2C=C(N=CC2=NN1)C3=CC(=CN=C3)OCC(CC4=CC(=CC=C4)C(F)(F)F)N

> <PUBCHEM_OPENEYE_ISO_SMILES>
CC1=C2C=C(N=CC2=NN1)C3=CC(=CN=C3)OCC(CC4=CC(=CC=C4)C(F)(F)F)N

> <PUBCHEM_CACTVS_TPSA>
89.7

> <PUBCHEM_MONOISOTOPIC_WEIGHT>
427.16199476

> <PUBCHEM_TOTAL_CHARGE>
0

> <PUBCHEM_HEAVY_ATOM_COUNT>
31

> <PUBCHEM_ATOM_DEF_STEREO_COUNT>
0

> <PUBCHEM_ATOM_UDEF_STEREO_COUNT>
1

> <PUBCHEM_BOND_DEF_STEREO_COUNT>
0

> <PUBCHEM_BOND_UDEF_STEREO_COUNT>
0

> <PUBCHEM_ISOTOPIC_ATOM_COUNT>
0

> <PUBCHEM_COMPONENT_COUNT>
1

> <PUBCHEM_CACTVS_TAUTO_COUNT>
-1

> <PUBCHEM_COORDINATE_TYPE>
1
5
255

> <PUBCHEM_BONDANNOTATIONS>
13  14  8
13  15  8
14  16  8
15  22  8
16  25  8
17  21  8
17  23  8
17  24  8
18  26  8
18  29  8
19  24  8
20  26  8
20  30  8
22  25  8
23  28  8
10  5  3
6  21  8
6  8  8
7  19  8
7  28  8
8  23  8
9  29  8
9  30  8

$$$$
