49830924
  -OEChem-03202503022D

 33 36  0     0  0  0  0  0  0999 V2000
    8.4353   -0.4923    0.0000 O   0  0  0  0  0  0  0  0  0  0  0  0
    6.4783   -2.5142    0.0000 N   0  0  0  0  0  0  0  0  0  0  0  0
    4.6660   -2.7095    0.0000 N   0  0  0  0  0  0  0  0  0  0  0  0
    6.7889    0.0458    0.0000 N   0  0  0  0  0  0  0  0  0  0  0  0
    7.0619   -1.7095    0.0000 N   0  0  0  0  0  0  0  0  0  0  0  0
    8.6994    3.1035    0.0000 N   0  0  0  0  0  0  0  0  0  0  0  0
    5.5321   -1.2095    0.0000 C   0  0  0  0  0  0  0  0  0  0  0  0
    5.5321   -2.2095    0.0000 C   0  0  0  0  0  0  0  0  0  0  0  0
    3.8000   -1.2095    0.0000 C   0  0  0  0  0  0  0  0  0  0  0  0
    4.6660   -0.7095    0.0000 C   0  0  0  0  0  0  0  0  0  0  0  0
    6.4783   -0.9048    0.0000 C   0  0  0  0  0  0  0  0  0  0  0  0
    3.8000   -2.2095    0.0000 C   0  0  0  0  0  0  0  0  0  0  0  0
    2.9061   -0.6748    0.0000 C   0  0  0  0  0  0  0  0  0  0  0  0
    2.9061   -2.7442    0.0000 C   0  0  0  0  0  0  0  0  0  0  0  0
    2.0000   -1.1887    0.0000 C   0  0  0  0  0  0  0  0  0  0  0  0
    2.0000   -2.2303    0.0000 C   0  0  0  0  0  0  0  0  0  0  0  0
    7.7674    0.2520    0.0000 C   0  0  0  0  0  0  0  0  0  0  0  0
    8.0781    1.2025    0.0000 C   0  0  0  0  0  0  0  0  0  0  0  0
    7.4103    1.9468    0.0000 C   0  0  0  0  0  0  0  0  0  0  0  0
    9.0566    1.4087    0.0000 C   0  0  0  0  0  0  0  0  0  0  0  0
    7.7209    2.8973    0.0000 C   0  0  0  0  0  0  0  0  0  0  0  0
    9.3673    2.3592    0.0000 C   0  0  0  0  0  0  0  0  0  0  0  0
    4.6660   -0.0895    0.0000 H   0  0  0  0  0  0  0  0  0  0  0  0
    6.6709   -3.1035    0.0000 H   0  0  0  0  0  0  0  0  0  0  0  0
    2.9132   -0.0549    0.0000 H   0  0  0  0  0  0  0  0  0  0  0  0
    6.3749    0.5072    0.0000 H   0  0  0  0  0  0  0  0  0  0  0  0
    2.9132   -3.3641    0.0000 H   0  0  0  0  0  0  0  0  0  0  0  0
    1.4643   -0.8766    0.0000 H   0  0  0  0  0  0  0  0  0  0  0  0
    1.4643   -2.5424    0.0000 H   0  0  0  0  0  0  0  0  0  0  0  0
    6.8036    1.8190    0.0000 H   0  0  0  0  0  0  0  0  0  0  0  0
    9.4707    0.9473    0.0000 H   0  0  0  0  0  0  0  0  0  0  0  0
    7.3069    3.3588    0.0000 H   0  0  0  0  0  0  0  0  0  0  0  0
    9.9740    2.4871    0.0000 H   0  0  0  0  0  0  0  0  0  0  0  0
  1 17  2  0  0  0  0
  2  5  1  0  0  0  0
  2  8  1  0  0  0  0
  2 24  1  0  0  0  0
  3  8  2  0  0  0  0
  3 12  1  0  0  0  0
  4 11  1  0  0  0  0
  4 17  1  0  0  0  0
  4 26  1  0  0  0  0
  5 11  2  0  0  0  0
  6 21  2  0  0  0  0
  6 22  1  0  0  0  0
  7  8  1  0  0  0  0
  7 10  2  0  0  0  0
  7 11  1  0  0  0  0
  9 10  1  0  0  0  0
  9 12  1  0  0  0  0
  9 13  2  0  0  0  0
 10 23  1  0  0  0  0
 12 14  2  0  0  0  0
 13 15  1  0  0  0  0
 13 25  1  0  0  0  0
 14 16  1  0  0  0  0
 14 27  1  0  0  0  0
 15 16  2  0  0  0  0
 15 28  1  0  0  0  0
 16 29  1  0  0  0  0
 17 18  1  0  0  0  0
 18 19  2  0  0  0  0
 18 20  1  0  0  0  0
 19 21  1  0  0  0  0
 19 30  1  0  0  0  0
 20 22  2  0  0  0  0
 20 31  1  0  0  0  0
 21 32  1  0  0  0  0
 22 33  1  0  0  0  0
M  END
> <PUBCHEM_COMPOUND_CID>
49830924

> <PUBCHEM_COMPOUND_CANONICALIZED>
1

> <PUBCHEM_CACTVS_COMPLEXITY>
411

> <PUBCHEM_CACTVS_HBOND_ACCEPTOR>
4

> <PUBCHEM_CACTVS_HBOND_DONOR>
2

> <PUBCHEM_CACTVS_ROTATABLE_BOND>
2

> <PUBCHEM_CACTVS_SUBSKEYS>
AAADccB7oAAAAAAAAAAAAAAAAAAAAWAAAAA8WIAAAAAAAFix/gAAHgAYAAAADAjBnwQ98P7rEACqAzd3dACShCu1AqAd+SE4ZNiIKPLA3dGEpQhwjQLIyacUgMAOAAAAAAACAAAAAAAAAAQAAAAAAAAAAA==

> <PUBCHEM_IUPAC_OPENEYE_NAME>
N-(1H-pyrazolo[3,4-b]quinolin-3-yl)pyridine-4-carboxamide

> <PUBCHEM_IUPAC_CAS_NAME>
N-(1H-pyrazolo[3,4-b]quinolin-3-yl)-4-pyridinecarboxamide

> <PUBCHEM_IUPAC_NAME_MARKUP>
<I>N</I>-(1<I>H</I>-pyrazolo[3,4-b]quinolin-3-yl)pyridine-4-carboxamide

> <PUBCHEM_IUPAC_NAME>
N-(1H-pyrazolo[3,4-b]quinolin-3-yl)pyridine-4-carboxamide

> <PUBCHEM_IUPAC_SYSTEMATIC_NAME>
N-(1H-pyrazolo[3,4-b]quinolin-3-yl)pyridine-4-carboxamide

> <PUBCHEM_IUPAC_TRADITIONAL_NAME>
N-(1H-pyrazolo[3,4-b]quinolin-3-yl)isonicotinamide

> <PUBCHEM_IUPAC_INCHI>
InChI=1S/C16H11N5O/c22-16(10-5-7-17-8-6-10)19-15-12-9-11-3-1-2-4-13(11)18-14(12)20-21-15/h1-9H,(H2,18,19,20,21,22)

> <PUBCHEM_IUPAC_INCHIKEY>
VWTSLPZPHHTWSU-UHFFFAOYSA-N

> <PUBCHEM_XLOGP3_AA>
2

> <PUBCHEM_EXACT_MASS>
289.09635999

> <PUBCHEM_MOLECULAR_FORMULA>
C16H11N5O

> <PUBCHEM_MOLECULAR_WEIGHT>
289.29

> <PUBCHEM_SMILES>
C1=CC=C2C(=C1)C=C3C(=N2)NN=C3NC(=O)C4=CC=NC=C4

> <PUBCHEM_OPENEYE_CAN_SMILES>
C1=CC=C2C(=C1)C=C3C(=N2)NN=C3NC(=O)C4=CC=NC=C4

> <PUBCHEM_OPENEYE_ISO_SMILES>
C1=CC=C2C(=C1)C=C3C(=N2)NN=C3NC(=O)C4=CC=NC=C4

> <PUBCHEM_CACTVS_TPSA>
83.6

> <PUBCHEM_MONOISOTOPIC_WEIGHT>
289.09635999

> <PUBCHEM_TOTAL_CHARGE>
0

> <PUBCHEM_HEAVY_ATOM_COUNT>
22

> <PUBCHEM_ATOM_DEF_STEREO_COUNT>
0

> <PUBCHEM_ATOM_UDEF_STEREO_COUNT>
0

> <PUBCHEM_BOND_DEF_STEREO_COUNT>
0

> <PUBCHEM_BOND_UDEF_STEREO_COUNT>
0

> <PUBCHEM_ISOTOPIC_ATOM_COUNT>
0

> <PUBCHEM_COMPONENT_COUNT>
1

> <PUBCHEM_CACTVS_TAUTO_COUNT>
-1

> <PUBCHEM_COORDINATE_TYPE>
1
5
255

> <PUBCHEM_BONDANNOTATIONS>
12  14  8
13  15  8
14  16  8
15  16  8
18  19  8
18  20  8
19  21  8
2  5  8
2  8  8
20  22  8
3  12  8
3  8  8
5  11  8
6  21  8
6  22  8
7  10  8
7  11  8
7  8  8
9  10  8
9  12  8
9  13  8

$$$$
