2868675
  -OEChem-03202504002D

 32 33  0     0  0  0  0  0  0999 V2000
    2.8660   -3.0521    0.0000 O   0  0  0  0  0  0  0  0  0  0  0  0
    4.5981   -4.0521    0.0000 O   0  0  0  0  0  0  0  0  0  0  0  0
    4.6551    2.0357    0.0000 N   0  0  0  0  0  0  0  0  0  0  0  0
    4.9641    2.9867    0.0000 N   0  0  0  0  0  0  0  0  0  0  0  0
    6.5519    3.7957    0.0000 N   0  0  0  0  0  0  0  0  0  0  0  0
    7.1962   -0.5521    0.0000 N   0  0  0  0  0  0  0  0  0  0  0  0
    8.1752    1.4176    0.0000 N   0  0  0  0  0  0  0  0  0  0  0  0
    4.5981   -1.0521    0.0000 C   0  0  0  0  0  0  0  0  0  0  0  0
    5.4641    1.4479    0.0000 C   0  0  0  0  0  0  0  0  0  0  0  0
    5.4641    0.4479    0.0000 C   0  0  0  0  0  0  0  0  0  0  0  0
    4.5981   -0.0521    0.0000 C   0  0  0  0  0  0  0  0  0  0  0  0
    3.7320   -1.5521    0.0000 C   0  0  0  0  0  0  0  0  0  0  0  0
    6.2731    2.0357    0.0000 C   0  0  0  0  0  0  0  0  0  0  0  0
    5.4641   -1.5521    0.0000 C   0  0  0  0  0  0  0  0  0  0  0  0
    3.7320   -2.5521    0.0000 C   0  0  0  0  0  0  0  0  0  0  0  0
    4.5981   -3.0521    0.0000 C   0  0  0  0  0  0  0  0  0  0  0  0
    5.4641   -2.5521    0.0000 C   0  0  0  0  0  0  0  0  0  0  0  0
    5.9641    2.9867    0.0000 C   0  0  0  0  0  0  0  0  0  0  0  0
    6.3301   -0.0521    0.0000 C   0  0  0  0  0  0  0  0  0  0  0  0
    7.2242    1.7266    0.0000 C   0  0  0  0  0  0  0  0  0  0  0  0
    2.0000   -2.5521    0.0000 C   0  0  0  0  0  0  0  0  0  0  0  0
    4.0611    0.2579    0.0000 H   0  0  0  0  0  0  0  0  0  0  0  0
    3.1951   -1.2421    0.0000 H   0  0  0  0  0  0  0  0  0  0  0  0
    6.0010   -1.2421    0.0000 H   0  0  0  0  0  0  0  0  0  0  0  0
    4.0654    1.8441    0.0000 H   0  0  0  0  0  0  0  0  0  0  0  0
    6.0010   -2.8621    0.0000 H   0  0  0  0  0  0  0  0  0  0  0  0
    6.2997    4.3621    0.0000 H   0  0  0  0  0  0  0  0  0  0  0  0
    7.1685    3.7309    0.0000 H   0  0  0  0  0  0  0  0  0  0  0  0
    5.1350   -4.3621    0.0000 H   0  0  0  0  0  0  0  0  0  0  0  0
    2.3100   -2.0152    0.0000 H   0  0  0  0  0  0  0  0  0  0  0  0
    1.4631   -2.2421    0.0000 H   0  0  0  0  0  0  0  0  0  0  0  0
    1.6900   -3.0891    0.0000 H   0  0  0  0  0  0  0  0  0  0  0  0
  1 15  1  0  0  0  0
  1 21  1  0  0  0  0
  2 16  1  0  0  0  0
  2 29  1  0  0  0  0
  3  4  1  0  0  0  0
  3  9  1  0  0  0  0
  3 25  1  0  0  0  0
  4 18  2  0  0  0  0
  5 18  1  0  0  0  0
  5 27  1  0  0  0  0
  5 28  1  0  0  0  0
  6 19  3  0  0  0  0
  7 20  3  0  0  0  0
  8 11  1  0  0  0  0
  8 12  2  0  0  0  0
  8 14  1  0  0  0  0
  9 10  1  0  0  0  0
  9 13  2  0  0  0  0
 10 11  2  3  0  0  0
 10 19  1  0  0  0  0
 11 22  1  0  0  0  0
 12 15  1  0  0  0  0
 12 23  1  0  0  0  0
 13 18  1  0  0  0  0
 13 20  1  0  0  0  0
 14 17  2  0  0  0  0
 14 24  1  0  0  0  0
 15 16  2  0  0  0  0
 16 17  1  0  0  0  0
 17 26  1  0  0  0  0
 21 30  1  0  0  0  0
 21 31  1  0  0  0  0
 21 32  1  0  0  0  0
M  END
> <PUBCHEM_COMPOUND_CID>
2868675

> <PUBCHEM_COMPOUND_CANONICALIZED>
1

> <PUBCHEM_CACTVS_COMPLEXITY>
502

> <PUBCHEM_CACTVS_HBOND_ACCEPTOR>
6

> <PUBCHEM_CACTVS_HBOND_DONOR>
3

> <PUBCHEM_CACTVS_ROTATABLE_BOND>
3

> <PUBCHEM_CACTVS_SUBSKEYS>
AAADccBzsAAAAAAAAAAAAAAAAAAAAWAAAAAwAAAAAAAAAAABwAAAHgAYCAAADAyBngIztpBjBgCyByZiYACyDAIgIAAcuSAmzJgNpiKG8dqA9CN0yBEL+A+QwBAOIAABAAAAQABAAAIAAACAAAAAAAAAAA==

> <PUBCHEM_IUPAC_OPENEYE_NAME>
3-amino-5-[1-cyano-2-(4-hydroxy-3-methoxy-phenyl)vinyl]-1H-pyrazole-4-carbonitrile

> <PUBCHEM_IUPAC_CAS_NAME>
3-amino-5-[1-cyano-2-(4-hydroxy-3-methoxyphenyl)ethenyl]-1H-pyrazole-4-carbonitrile

> <PUBCHEM_IUPAC_NAME_MARKUP>
3-amino-5-[1-cyano-2-(4-hydroxy-3-methoxyphenyl)ethenyl]-1<I>H</I>-pyrazole-4-carbonitrile

> <PUBCHEM_IUPAC_NAME>
3-amino-5-[1-cyano-2-(4-hydroxy-3-methoxyphenyl)ethenyl]-1H-pyrazole-4-carbonitrile

> <PUBCHEM_IUPAC_SYSTEMATIC_NAME>
3-azanyl-5-[1-cyano-2-(3-methoxy-4-oxidanyl-phenyl)ethenyl]-1H-pyrazole-4-carbonitrile

> <PUBCHEM_IUPAC_TRADITIONAL_NAME>
3-amino-5-[1-cyano-2-(4-hydroxy-3-methoxy-phenyl)vinyl]-1H-pyrazole-4-carbonitrile

> <PUBCHEM_IUPAC_INCHI>
InChI=1S/C14H11N5O2/c1-21-12-5-8(2-3-11(12)20)4-9(6-15)13-10(7-16)14(17)19-18-13/h2-5,20H,1H3,(H3,17,18,19)

> <PUBCHEM_IUPAC_INCHIKEY>
WCAKSXQRFBVWDG-UHFFFAOYSA-N

> <PUBCHEM_XLOGP3_AA>
1.6

> <PUBCHEM_EXACT_MASS>
281.09127461

> <PUBCHEM_MOLECULAR_FORMULA>
C14H11N5O2

> <PUBCHEM_MOLECULAR_WEIGHT>
281.27

> <PUBCHEM_SMILES>
COC1=C(C=CC(=C1)C=C(C#N)C2=C(C(=NN2)N)C#N)O

> <PUBCHEM_OPENEYE_CAN_SMILES>
COC1=C(C=CC(=C1)C=C(C#N)C2=C(C(=NN2)N)C#N)O

> <PUBCHEM_OPENEYE_ISO_SMILES>
COC1=C(C=CC(=C1)C=C(C#N)C2=C(C(=NN2)N)C#N)O

> <PUBCHEM_CACTVS_TPSA>
132

> <PUBCHEM_MONOISOTOPIC_WEIGHT>
281.09127461

> <PUBCHEM_TOTAL_CHARGE>
0

> <PUBCHEM_HEAVY_ATOM_COUNT>
21

> <PUBCHEM_ATOM_DEF_STEREO_COUNT>
0

> <PUBCHEM_ATOM_UDEF_STEREO_COUNT>
0

> <PUBCHEM_BOND_DEF_STEREO_COUNT>
0

> <PUBCHEM_BOND_UDEF_STEREO_COUNT>
1

> <PUBCHEM_ISOTOPIC_ATOM_COUNT>
0

> <PUBCHEM_COMPONENT_COUNT>
1

> <PUBCHEM_CACTVS_TAUTO_COUNT>
-1

> <PUBCHEM_COORDINATE_TYPE>
1
5
255

> <PUBCHEM_BONDANNOTATIONS>
10  11  1
12  15  8
13  18  8
14  17  8
15  16  8
16  17  8
3  4  8
3  9  8
4  18  8
8  12  8
8  14  8
9  13  8

$$$$
