11453012
  -OEChem-03202507012D

 56 61  0     0  0  0  0  0  0999 V2000
    3.4026    2.7082    0.0000 O   0  0  0  0  0  0  0  0  0  0  0  0
    6.7523    3.7902    0.0000 O   0  0  0  0  0  0  0  0  0  0  0  0
    4.6783   -0.6636    0.0000 N   0  0  0  0  0  0  0  0  0  0  0  0
    5.6103   -3.5151    0.0000 N   0  0  0  0  0  0  0  0  0  0  0  0
    4.9917    3.5145    0.0000 N   0  0  0  0  0  0  0  0  0  0  0  0
    7.6900    0.3093    0.0000 N   0  0  0  0  0  0  0  0  0  0  0  0
    4.9889   -1.6141    0.0000 C   0  0  0  0  0  0  0  0  0  0  0  0
    5.9674   -1.8203    0.0000 C   0  0  0  0  0  0  0  0  0  0  0  0
    4.3211   -2.3584    0.0000 C   0  0  0  0  0  0  0  0  0  0  0  0
    6.2781   -2.7708    0.0000 C   0  0  0  0  0  0  0  0  0  0  0  0
    4.6318   -3.3089    0.0000 C   0  0  0  0  0  0  0  0  0  0  0  0
    3.7320   -0.3588    0.0000 C   0  0  0  0  0  0  0  0  0  0  0  0
    5.2619    0.1412    0.0000 C   0  0  0  0  0  0  0  0  0  0  0  0
    4.6783    0.9459    0.0000 C   0  0  0  0  0  0  0  0  0  0  0  0
    3.7320    0.6412    0.0000 C   0  0  0  0  0  0  0  0  0  0  0  0
    4.9889    1.8964    0.0000 C   0  0  0  0  0  0  0  0  0  0  0  0
    2.8660   -0.8588    0.0000 C   0  0  0  0  0  0  0  0  0  0  0  0
    5.9405    2.2038    0.0000 C   0  0  0  0  0  0  0  0  0  0  0  0
    2.8660    1.1412    0.0000 C   0  0  0  0  0  0  0  0  0  0  0  0
    6.7485    1.6146    0.0000 C   0  0  0  0  0  0  0  0  0  0  0  0
    4.4026    2.7065    0.0000 C   0  0  0  0  0  0  0  0  0  0  0  0
    2.0000   -0.3588    0.0000 C   0  0  0  0  0  0  0  0  0  0  0  0
    2.0000    0.6412    0.0000 C   0  0  0  0  0  0  0  0  0  0  0  0
    7.6942    1.9210    0.0000 C   0  0  0  0  0  0  0  0  0  0  0  0
    5.9422    3.2038    0.0000 C   0  0  0  0  0  0  0  0  0  0  0  0
    8.2792    1.1099    0.0000 C   0  0  0  0  0  0  0  0  0  0  0  0
    6.7459    0.6205    0.0000 C   0  0  0  0  0  0  0  0  0  0  0  0
    8.1041    2.8331    0.0000 C   0  0  0  0  0  0  0  0  0  0  0  0
    9.2741    1.2110    0.0000 C   0  0  0  0  0  0  0  0  0  0  0  0
    7.9941   -0.6434    0.0000 C   0  0  0  0  0  0  0  0  0  0  0  0
    9.0990    2.9342    0.0000 C   0  0  0  0  0  0  0  0  0  0  0  0
    9.6840    2.1232    0.0000 C   0  0  0  0  0  0  0  0  0  0  0  0
    5.4030   -1.1526    0.0000 H   0  0  0  0  0  0  0  0  0  0  0  0
    6.5812   -1.7330    0.0000 H   0  0  0  0  0  0  0  0  0  0  0  0
    5.9880   -1.2006    0.0000 H   0  0  0  0  0  0  0  0  0  0  0  0
    3.9385   -1.8705    0.0000 H   0  0  0  0  0  0  0  0  0  0  0  0
    3.7742   -2.6504    0.0000 H   0  0  0  0  0  0  0  0  0  0  0  0
    6.6607   -3.2587    0.0000 H   0  0  0  0  0  0  0  0  0  0  0  0
    6.8250   -2.4788    0.0000 H   0  0  0  0  0  0  0  0  0  0  0  0
    4.0179   -3.3962    0.0000 H   0  0  0  0  0  0  0  0  0  0  0  0
    4.6112   -3.9286    0.0000 H   0  0  0  0  0  0  0  0  0  0  0  0
    5.8029   -4.1044    0.0000 H   0  0  0  0  0  0  0  0  0  0  0  0
    5.8819    0.1412    0.0000 H   0  0  0  0  0  0  0  0  0  0  0  0
    2.8660   -1.4788    0.0000 H   0  0  0  0  0  0  0  0  0  0  0  0
    2.8660    1.7612    0.0000 H   0  0  0  0  0  0  0  0  0  0  0  0
    1.4631   -0.6688    0.0000 H   0  0  0  0  0  0  0  0  0  0  0  0
    1.4631    0.9512    0.0000 H   0  0  0  0  0  0  0  0  0  0  0  0
    4.8012    4.1044    0.0000 H   0  0  0  0  0  0  0  0  0  0  0  0
    6.2431    0.2578    0.0000 H   0  0  0  0  0  0  0  0  0  0  0  0
    7.7414    3.3360    0.0000 H   0  0  0  0  0  0  0  0  0  0  0  0
    9.6368    0.7082    0.0000 H   0  0  0  0  0  0  0  0  0  0  0  0
    7.4035   -0.8319    0.0000 H   0  0  0  0  0  0  0  0  0  0  0  0
    8.1826   -1.2340    0.0000 H   0  0  0  0  0  0  0  0  0  0  0  0
    8.5848   -0.4549    0.0000 H   0  0  0  0  0  0  0  0  0  0  0  0
    9.3531    3.4997    0.0000 H   0  0  0  0  0  0  0  0  0  0  0  0
   10.3008    2.1858    0.0000 H   0  0  0  0  0  0  0  0  0  0  0  0
  1 21  2  0  0  0  0
  2 25  2  0  0  0  0
  3  7  1  0  0  0  0
  3 12  1  0  0  0  0
  3 13  1  0  0  0  0
  4 10  1  0  0  0  0
  4 11  1  0  0  0  0
  4 42  1  0  0  0  0
  5 21  1  0  0  0  0
  5 25  1  0  0  0  0
  5 48  1  0  0  0  0
  6 26  1  0  0  0  0
  6 27  1  0  0  0  0
  6 30  1  0  0  0  0
  7  8  1  0  0  0  0
  7  9  1  0  0  0  0
  7 33  1  0  0  0  0
  8 10  1  0  0  0  0
  8 34  1  0  0  0  0
  8 35  1  0  0  0  0
  9 11  1  0  0  0  0
  9 36  1  0  0  0  0
  9 37  1  0  0  0  0
 10 38  1  0  0  0  0
 10 39  1  0  0  0  0
 11 40  1  0  0  0  0
 11 41  1  0  0  0  0
 12 15  1  0  0  0  0
 12 17  2  0  0  0  0
 13 14  2  0  0  0  0
 13 43  1  0  0  0  0
 14 15  1  0  0  0  0
 14 16  1  0  0  0  0
 15 19  2  0  0  0  0
 16 18  2  0  0  0  0
 16 21  1  0  0  0  0
 17 22  1  0  0  0  0
 17 44  1  0  0  0  0
 18 20  1  0  0  0  0
 18 25  1  0  0  0  0
 19 23  1  0  0  0  0
 19 45  1  0  0  0  0
 20 24  1  0  0  0  0
 20 27  2  0  0  0  0
 22 23  2  0  0  0  0
 22 46  1  0  0  0  0
 23 47  1  0  0  0  0
 24 26  1  0  0  0  0
 24 28  2  0  0  0  0
 26 29  2  0  0  0  0
 27 49  1  0  0  0  0
 28 31  1  0  0  0  0
 28 50  1  0  0  0  0
 29 32  1  0  0  0  0
 29 51  1  0  0  0  0
 30 52  1  0  0  0  0
 30 53  1  0  0  0  0
 30 54  1  0  0  0  0
 31 32  2  0  0  0  0
 31 55  1  0  0  0  0
 32 56  1  0  0  0  0
M  END
> <PUBCHEM_COMPOUND_CID>
11453012

> <PUBCHEM_COMPOUND_CANONICALIZED>
1

> <PUBCHEM_CACTVS_COMPLEXITY>
804

> <PUBCHEM_CACTVS_HBOND_ACCEPTOR>
3

> <PUBCHEM_CACTVS_HBOND_DONOR>
2

> <PUBCHEM_CACTVS_ROTATABLE_BOND>
3

> <PUBCHEM_CACTVS_SUBSKEYS>
AAADceB7sAAAAAAAAAAAAAAAAAAAAWLEAAA8YIAAAAAAAFgB/gAAHgAQAAAADCjBngQ+wPPMEACoAzV3VACCgCAxAiAI2KE4ZNgIIPLA1ZGEIAhglCDIyQccicCegAAAAAACAAAAAAAAAAQAAAAAAAAAAA==

> <PUBCHEM_IUPAC_OPENEYE_NAME>
3-(1-methylindol-3-yl)-4-[1-(4-piperidyl)indol-3-yl]pyrrole-2,5-dione

> <PUBCHEM_IUPAC_CAS_NAME>
3-(1-methyl-3-indolyl)-4-[1-(4-piperidinyl)-3-indolyl]pyrrole-2,5-dione

> <PUBCHEM_IUPAC_NAME_MARKUP>
3-(1-methylindol-3-yl)-4-(1-piperidin-4-ylindol-3-yl)pyrrole-2,5-dione

> <PUBCHEM_IUPAC_NAME>
3-(1-methylindol-3-yl)-4-(1-piperidin-4-ylindol-3-yl)pyrrole-2,5-dione

> <PUBCHEM_IUPAC_SYSTEMATIC_NAME>
3-(1-methylindol-3-yl)-4-(1-piperidin-4-ylindol-3-yl)pyrrole-2,5-dione

> <PUBCHEM_IUPAC_TRADITIONAL_NAME>
3-(1-methylindol-3-yl)-4-[1-(4-piperidyl)indol-3-yl]-3-pyrroline-2,5-quinone

> <PUBCHEM_IUPAC_INCHI>
InChI=1S/C26H24N4O2/c1-29-14-19(17-6-2-4-8-21(17)29)23-24(26(32)28-25(23)31)20-15-30(16-10-12-27-13-11-16)22-9-5-3-7-18(20)22/h2-9,14-16,27H,10-13H2,1H3,(H,28,31,32)

> <PUBCHEM_IUPAC_INCHIKEY>
RELJBNLDXPSLLS-UHFFFAOYSA-N

> <PUBCHEM_XLOGP3_AA>
2.8

> <PUBCHEM_EXACT_MASS>
424.18992602

> <PUBCHEM_MOLECULAR_FORMULA>
C26H24N4O2

> <PUBCHEM_MOLECULAR_WEIGHT>
424.5

> <PUBCHEM_SMILES>
CN1C=C(C2=CC=CC=C21)C3=C(C(=O)NC3=O)C4=CN(C5=CC=CC=C54)C6CCNCC6

> <PUBCHEM_OPENEYE_CAN_SMILES>
CN1C=C(C2=CC=CC=C21)C3=C(C(=O)NC3=O)C4=CN(C5=CC=CC=C54)C6CCNCC6

> <PUBCHEM_OPENEYE_ISO_SMILES>
CN1C=C(C2=CC=CC=C21)C3=C(C(=O)NC3=O)C4=CN(C5=CC=CC=C54)C6CCNCC6

> <PUBCHEM_CACTVS_TPSA>
68.1

> <PUBCHEM_MONOISOTOPIC_WEIGHT>
424.18992602

> <PUBCHEM_TOTAL_CHARGE>
0

> <PUBCHEM_HEAVY_ATOM_COUNT>
32

> <PUBCHEM_ATOM_DEF_STEREO_COUNT>
0

> <PUBCHEM_ATOM_UDEF_STEREO_COUNT>
0

> <PUBCHEM_BOND_DEF_STEREO_COUNT>
0

> <PUBCHEM_BOND_UDEF_STEREO_COUNT>
0

> <PUBCHEM_ISOTOPIC_ATOM_COUNT>
0

> <PUBCHEM_COMPONENT_COUNT>
1

> <PUBCHEM_CACTVS_TAUTO_COUNT>
-1

> <PUBCHEM_COORDINATE_TYPE>
1
5
255

> <PUBCHEM_BONDANNOTATIONS>
12  15  8
12  17  8
13  14  8
14  15  8
15  19  8
17  22  8
19  23  8
20  24  8
20  27  8
22  23  8
24  26  8
24  28  8
26  29  8
28  31  8
29  32  8
3  12  8
3  13  8
31  32  8
6  26  8
6  27  8

$$$$
