135400873
  -OEChem-03202506042D

 37 40  0     0  0  0  0  0  0999 V2000
    5.8688    0.6846    0.0000 S   0  0  0  0  0  0  0  0  0  0  0  0
    3.5827   -2.3209    0.0000 S   0  0  0  0  0  0  0  0  0  0  0  0
    4.8519    3.0640    0.0000 O   0  0  0  0  0  0  0  0  0  0  0  0
    4.3907    1.3428    0.0000 N   0  0  0  0  0  0  0  0  0  0  0  0
    4.4839   -0.4368    0.0000 N   0  0  0  0  0  0  0  0  0  0  0  0
   10.3314    0.1445    0.0000 N   0  0  0  0  0  0  0  0  0  0  0  0
    7.7054    1.6792    0.0000 C   0  0  0  0  0  0  0  0  0  0  0  0
    9.4374    1.6792    0.0000 C   0  0  0  0  0  0  0  0  0  0  0  0
    8.5714    2.1792    0.0000 C   0  0  0  0  0  0  0  0  0  0  0  0
    9.4374    0.6792    0.0000 C   0  0  0  0  0  0  0  0  0  0  0  0
    6.8394    2.1792    0.0000 C   0  0  0  0  0  0  0  0  0  0  0  0
    5.9734    1.6792    0.0000 C   0  0  0  0  0  0  0  0  0  0  0  0
    7.7054    0.6792    0.0000 C   0  0  0  0  0  0  0  0  0  0  0  0
    8.5714    0.1792    0.0000 C   0  0  0  0  0  0  0  0  0  0  0  0
    4.8907    0.4767    0.0000 C   0  0  0  0  0  0  0  0  0  0  0  0
    5.0598    2.0859    0.0000 C   0  0  0  0  0  0  0  0  0  0  0  0
   10.3314    2.2138    0.0000 C   0  0  0  0  0  0  0  0  0  0  0  0
    3.4894   -0.5413    0.0000 C   0  0  0  0  0  0  0  0  0  0  0  0
    3.0827   -1.4549    0.0000 C   0  0  0  0  0  0  0  0  0  0  0  0
   11.2375    1.7000    0.0000 C   0  0  0  0  0  0  0  0  0  0  0  0
   11.2375    0.6584    0.0000 C   0  0  0  0  0  0  0  0  0  0  0  0
    2.1045   -1.6628    0.0000 C   0  0  0  0  0  0  0  0  0  0  0  0
    2.0000   -2.6573    0.0000 C   0  0  0  0  0  0  0  0  0  0  0  0
    2.9136   -3.0640    0.0000 C   0  0  0  0  0  0  0  0  0  0  0  0
    8.5714    2.7992    0.0000 H   0  0  0  0  0  0  0  0  0  0  0  0
    6.8394    2.7992    0.0000 H   0  0  0  0  0  0  0  0  0  0  0  0
    7.1685    0.3692    0.0000 H   0  0  0  0  0  0  0  0  0  0  0  0
    8.5714   -0.4408    0.0000 H   0  0  0  0  0  0  0  0  0  0  0  0
   10.3242    2.8338    0.0000 H   0  0  0  0  0  0  0  0  0  0  0  0
    3.5327    0.0772    0.0000 H   0  0  0  0  0  0  0  0  0  0  0  0
    2.8878   -0.3913    0.0000 H   0  0  0  0  0  0  0  0  0  0  0  0
    3.7741    1.4076    0.0000 H   0  0  0  0  0  0  0  0  0  0  0  0
   11.7732    2.0120    0.0000 H   0  0  0  0  0  0  0  0  0  0  0  0
   11.7732    0.3463    0.0000 H   0  0  0  0  0  0  0  0  0  0  0  0
    1.6438   -1.2479    0.0000 H   0  0  0  0  0  0  0  0  0  0  0  0
    1.4631   -2.9673    0.0000 H   0  0  0  0  0  0  0  0  0  0  0  0
    3.0424   -3.6705    0.0000 H   0  0  0  0  0  0  0  0  0  0  0  0
  1 12  1  0  0  0  0
  1 15  1  0  0  0  0
  2 19  1  0  0  0  0
  2 24  1  0  0  0  0
  3 16  2  0  0  0  0
  4 15  1  0  0  0  0
  4 16  1  0  0  0  0
  4 32  1  0  0  0  0
  5 15  2  0  0  0  0
  5 18  1  0  0  0  0
  6 10  1  0  0  0  0
  6 21  2  0  0  0  0
  7  9  2  0  0  0  0
  7 11  1  0  0  0  0
  7 13  1  0  0  0  0
  8  9  1  0  0  0  0
  8 10  2  0  0  0  0
  8 17  1  0  0  0  0
  9 25  1  0  0  0  0
 10 14  1  0  0  0  0
 11 12  2  0  0  0  0
 11 26  1  0  0  0  0
 12 16  1  0  0  0  0
 13 14  2  0  0  0  0
 13 27  1  0  0  0  0
 14 28  1  0  0  0  0
 17 20  2  0  0  0  0
 17 29  1  0  0  0  0
 18 19  1  0  0  0  0
 18 30  1  0  0  0  0
 18 31  1  0  0  0  0
 19 22  2  0  0  0  0
 20 21  1  0  0  0  0
 20 33  1  0  0  0  0
 21 34  1  0  0  0  0
 22 23  1  0  0  0  0
 22 35  1  0  0  0  0
 23 24  2  0  0  0  0
 23 36  1  0  0  0  0
 24 37  1  0  0  0  0
M  END
> <PUBCHEM_COMPOUND_CID>
135400873

> <PUBCHEM_COMPOUND_CANONICALIZED>
1

> <PUBCHEM_CACTVS_COMPLEXITY>
548

> <PUBCHEM_CACTVS_HBOND_ACCEPTOR>
5

> <PUBCHEM_CACTVS_HBOND_DONOR>
1

> <PUBCHEM_CACTVS_ROTATABLE_BOND>
3

> <PUBCHEM_CACTVS_SUBSKEYS>
AAADccB7IABgAAAAAAAAAAAAAAAAAWJAAAA8QAAAAAAAAACx/AAAHgQQAAAADAjF3gS9wfLIEAisAzV3dACDkKFxCjBJ2Dg4ZNgIIOLgmZGEIAhggADoyYcQgMAOCAACAAACAAAQAAQAAAQAAAAAAAAAAA==

> <PUBCHEM_IUPAC_OPENEYE_NAME>
(5Z)-5-(6-quinolylmethylene)-2-(2-thienylmethylimino)thiazolidin-4-one

> <PUBCHEM_IUPAC_CAS_NAME>
(5Z)-5-(6-quinolinylmethylidene)-2-(thiophen-2-ylmethylimino)-4-thiazolidinone

> <PUBCHEM_IUPAC_NAME_MARKUP>
(5<I>Z</I>)-5-(quinolin-6-ylmethylidene)-2-(thiophen-2-ylmethylimino)-1,3-thiazolidin-4-one

> <PUBCHEM_IUPAC_NAME>
(5Z)-5-(quinolin-6-ylmethylidene)-2-(thiophen-2-ylmethylimino)-1,3-thiazolidin-4-one

> <PUBCHEM_IUPAC_SYSTEMATIC_NAME>
(5Z)-5-(quinolin-6-ylmethylidene)-2-(thiophen-2-ylmethylimino)-1,3-thiazolidin-4-one

> <PUBCHEM_IUPAC_TRADITIONAL_NAME>
(5Z)-5-(6-quinolylmethylene)-2-(2-thenylimino)thiazolidin-4-one

> <PUBCHEM_IUPAC_INCHI>
InChI=1S/C18H13N3OS2/c22-17-16(24-18(21-17)20-11-14-4-2-8-23-14)10-12-5-6-15-13(9-12)3-1-7-19-15/h1-10H,11H2,(H,20,21,22)/b16-10-

> <PUBCHEM_IUPAC_INCHIKEY>
XOLMRFUGOINFDQ-YBEGLDIGSA-N

> <PUBCHEM_XLOGP3_AA>
4

> <PUBCHEM_EXACT_MASS>
351.05000439

> <PUBCHEM_MOLECULAR_FORMULA>
C18H13N3OS2

> <PUBCHEM_MOLECULAR_WEIGHT>
351.4

> <PUBCHEM_SMILES>
C1=CC2=C(C=CC(=C2)/C=C\3/C(=O)NC(=NCC4=CC=CS4)S3)N=C1

> <PUBCHEM_OPENEYE_CAN_SMILES>
C1=CC2=C(C=CC(=C2)C=C3C(=O)NC(=NCC4=CC=CS4)S3)N=C1

> <PUBCHEM_OPENEYE_ISO_SMILES>
C1=CC2=C(C=CC(=C2)/C=C\3/C(=O)NC(=NCC4=CC=CS4)S3)N=C1

> <PUBCHEM_CACTVS_TPSA>
108

> <PUBCHEM_MONOISOTOPIC_WEIGHT>
351.05000439

> <PUBCHEM_TOTAL_CHARGE>
0

> <PUBCHEM_HEAVY_ATOM_COUNT>
24

> <PUBCHEM_ATOM_DEF_STEREO_COUNT>
0

> <PUBCHEM_ATOM_UDEF_STEREO_COUNT>
0

> <PUBCHEM_BOND_DEF_STEREO_COUNT>
1

> <PUBCHEM_BOND_UDEF_STEREO_COUNT>
0

> <PUBCHEM_ISOTOPIC_ATOM_COUNT>
0

> <PUBCHEM_COMPONENT_COUNT>
1

> <PUBCHEM_CACTVS_TAUTO_COUNT>
-1

> <PUBCHEM_COORDINATE_TYPE>
1
5
255

> <PUBCHEM_BONDANNOTATIONS>
10  14  8
13  14  8
17  20  8
19  22  8
2  19  8
2  24  8
20  21  8
22  23  8
23  24  8
6  10  8
6  21  8
7  13  8
7  9  8
8  10  8
8  17  8
8  9  8

$$$$
