49830938
  -OEChem-03202500522D

 28 30  0     0  0  0  0  0  0999 V2000
    6.9939   -1.5000    0.0000 N   0  0  0  0  0  0  0  0  0  0  0  0
    6.4103   -2.3047    0.0000 N   0  0  0  0  0  0  0  0  0  0  0  0
    4.5981   -2.5000    0.0000 N   0  0  0  0  0  0  0  0  0  0  0  0
    2.0000   -0.0000    0.0000 N   0  0  0  0  0  0  0  0  0  0  0  0
    5.4641   -1.0000    0.0000 C   0  0  0  0  0  0  0  0  0  0  0  0
    4.5981   -0.5000    0.0000 C   0  0  0  0  0  0  0  0  0  0  0  0
    6.4103   -0.6953    0.0000 C   0  0  0  0  0  0  0  0  0  0  0  0
    5.4641   -2.0000    0.0000 C   0  0  0  0  0  0  0  0  0  0  0  0
    4.5981    0.5000    0.0000 C   0  0  0  0  0  0  0  0  0  0  0  0
    3.7320   -1.0000    0.0000 C   0  0  0  0  0  0  0  0  0  0  0  0
    6.7210    0.2553    0.0000 C   0  0  0  0  0  0  0  0  0  0  0  0
    3.7320   -2.0000    0.0000 C   0  0  0  0  0  0  0  0  0  0  0  0
    5.4641    1.0000    0.0000 C   0  0  0  0  0  0  0  0  0  0  0  0
    3.7320    1.0000    0.0000 C   0  0  0  0  0  0  0  0  0  0  0  0
    5.4641    2.0000    0.0000 C   0  0  0  0  0  0  0  0  0  0  0  0
    3.7320    2.0000    0.0000 C   0  0  0  0  0  0  0  0  0  0  0  0
    4.5981    2.5000    0.0000 C   0  0  0  0  0  0  0  0  0  0  0  0
    2.8660   -0.5000    0.0000 C   0  0  0  0  0  0  0  0  0  0  0  0
    7.6139   -1.5000    0.0000 H   0  0  0  0  0  0  0  0  0  0  0  0
    7.3103    0.0626    0.0000 H   0  0  0  0  0  0  0  0  0  0  0  0
    6.9136    0.8446    0.0000 H   0  0  0  0  0  0  0  0  0  0  0  0
    6.1317    0.4479    0.0000 H   0  0  0  0  0  0  0  0  0  0  0  0
    3.1951   -2.3100    0.0000 H   0  0  0  0  0  0  0  0  0  0  0  0
    6.0010    0.6900    0.0000 H   0  0  0  0  0  0  0  0  0  0  0  0
    3.1951    0.6900    0.0000 H   0  0  0  0  0  0  0  0  0  0  0  0
    6.0010    2.3100    0.0000 H   0  0  0  0  0  0  0  0  0  0  0  0
    3.1951    2.3100    0.0000 H   0  0  0  0  0  0  0  0  0  0  0  0
    4.5981    3.1200    0.0000 H   0  0  0  0  0  0  0  0  0  0  0  0
  1  2  1  0  0  0  0
  1  7  1  0  0  0  0
  1 19  1  0  0  0  0
  2  8  2  0  0  0  0
  3  8  1  0  0  0  0
  3 12  2  0  0  0  0
  4 18  3  0  0  0  0
  5  6  1  0  0  0  0
  5  7  2  0  0  0  0
  5  8  1  0  0  0  0
  6  9  1  0  0  0  0
  6 10  2  0  0  0  0
  7 11  1  0  0  0  0
  9 13  2  0  0  0  0
  9 14  1  0  0  0  0
 10 12  1  0  0  0  0
 10 18  1  0  0  0  0
 11 20  1  0  0  0  0
 11 21  1  0  0  0  0
 11 22  1  0  0  0  0
 12 23  1  0  0  0  0
 13 15  1  0  0  0  0
 13 24  1  0  0  0  0
 14 16  2  0  0  0  0
 14 25  1  0  0  0  0
 15 17  2  0  0  0  0
 15 26  1  0  0  0  0
 16 17  1  0  0  0  0
 16 27  1  0  0  0  0
 17 28  1  0  0  0  0
M  END
> <PUBCHEM_COMPOUND_CID>
49830938

> <PUBCHEM_COMPOUND_CANONICALIZED>
1

> <PUBCHEM_CACTVS_COMPLEXITY>
341

> <PUBCHEM_CACTVS_HBOND_ACCEPTOR>
3

> <PUBCHEM_CACTVS_HBOND_DONOR>
1

> <PUBCHEM_CACTVS_ROTATABLE_BOND>
1

> <PUBCHEM_CACTVS_SUBSKEYS>
AAADccBzgAAAAAAAAAAAAAAAAAAAAWAAAAA8QAAAAAAAAFgB/AAAHAAYAAAADAjBHwQ/sN5rEACyBzZnZACyhCsxAKAd+SA4RJiIqGLA2dGEpAhgmALIyC8QgMAOgAAAAAAAAAAAAAAAAAAAAAAAAAAAAA==

> <PUBCHEM_IUPAC_OPENEYE_NAME>
3-methyl-4-phenyl-2H-pyrazolo[3,4-b]pyridine-5-carbonitrile

> <PUBCHEM_IUPAC_CAS_NAME>
3-methyl-4-phenyl-2H-pyrazolo[3,4-b]pyridine-5-carbonitrile

> <PUBCHEM_IUPAC_NAME_MARKUP>
3-methyl-4-phenyl-2<I>H</I>-pyrazolo[3,4-b]pyridine-5-carbonitrile

> <PUBCHEM_IUPAC_NAME>
3-methyl-4-phenyl-2H-pyrazolo[3,4-b]pyridine-5-carbonitrile

> <PUBCHEM_IUPAC_SYSTEMATIC_NAME>
3-methyl-4-phenyl-2H-pyrazolo[3,4-b]pyridine-5-carbonitrile

> <PUBCHEM_IUPAC_TRADITIONAL_NAME>
3-methyl-4-phenyl-2H-pyrazolo[3,4-b]pyridine-5-carbonitrile

> <PUBCHEM_IUPAC_INCHI>
InChI=1S/C14H10N4/c1-9-12-13(10-5-3-2-4-6-10)11(7-15)8-16-14(12)18-17-9/h2-6,8H,1H3,(H,16,17,18)

> <PUBCHEM_IUPAC_INCHIKEY>
BTHLNBWTKKAULX-UHFFFAOYSA-N

> <PUBCHEM_XLOGP3_AA>
2.6

> <PUBCHEM_EXACT_MASS>
234.090546336

> <PUBCHEM_MOLECULAR_FORMULA>
C14H10N4

> <PUBCHEM_MOLECULAR_WEIGHT>
234.26

> <PUBCHEM_SMILES>
CC1=C2C(=C(C=NC2=NN1)C#N)C3=CC=CC=C3

> <PUBCHEM_OPENEYE_CAN_SMILES>
CC1=C2C(=C(C=NC2=NN1)C#N)C3=CC=CC=C3

> <PUBCHEM_OPENEYE_ISO_SMILES>
CC1=C2C(=C(C=NC2=NN1)C#N)C3=CC=CC=C3

> <PUBCHEM_CACTVS_TPSA>
65.4

> <PUBCHEM_MONOISOTOPIC_WEIGHT>
234.090546336

> <PUBCHEM_TOTAL_CHARGE>
0

> <PUBCHEM_HEAVY_ATOM_COUNT>
18

> <PUBCHEM_ATOM_DEF_STEREO_COUNT>
0

> <PUBCHEM_ATOM_UDEF_STEREO_COUNT>
0

> <PUBCHEM_BOND_DEF_STEREO_COUNT>
0

> <PUBCHEM_BOND_UDEF_STEREO_COUNT>
0

> <PUBCHEM_ISOTOPIC_ATOM_COUNT>
0

> <PUBCHEM_COMPONENT_COUNT>
1

> <PUBCHEM_CACTVS_TAUTO_COUNT>
-1

> <PUBCHEM_COORDINATE_TYPE>
1
5
255

> <PUBCHEM_BONDANNOTATIONS>
1  2  8
1  7  8
10  12  8
13  15  8
14  16  8
15  17  8
16  17  8
2  8  8
3  12  8
3  8  8
5  6  8
5  7  8
5  8  8
6  10  8
9  13  8
9  14  8

$$$$
