24905313
  -OEChem-03192523512D

 39 42  0     0  0  0  0  0  0999 V2000
    5.9209    3.7757    0.0000 O   0  0  0  0  0  0  0  0  0  0  0  0
    7.2566    2.2871    0.0000 O   0  0  0  0  0  0  0  0  0  0  0  0
    5.4283   -3.9306    0.0000 N   0  0  0  0  0  0  0  0  0  0  0  0
    4.6783   -1.6359    0.0000 N   0  0  0  0  0  0  0  0  0  0  0  0
    5.2619   -0.8312    0.0000 N   0  0  0  0  0  0  0  0  0  0  0  0
    2.8660   -1.8312    0.0000 N   0  0  0  0  0  0  0  0  0  0  0  0
    2.0000   -0.3312    0.0000 N   0  0  0  0  0  0  0  0  0  0  0  0
    2.8660    1.1688    0.0000 N   0  0  0  0  0  0  0  0  0  0  0  0
    4.9889   -2.5864    0.0000 C   0  0  0  0  0  0  0  0  0  0  0  0
    5.8807   -3.0388    0.0000 C   0  0  0  0  0  0  0  0  0  0  0  0
    4.5365   -3.4782    0.0000 C   0  0  0  0  0  0  0  0  0  0  0  0
    3.7320   -1.3312    0.0000 C   0  0  0  0  0  0  0  0  0  0  0  0
    3.7320   -0.3312    0.0000 C   0  0  0  0  0  0  0  0  0  0  0  0
    4.6783   -0.0264    0.0000 C   0  0  0  0  0  0  0  0  0  0  0  0
    4.9889    0.9241    0.0000 C   0  0  0  0  0  0  0  0  0  0  0  0
    2.8660    0.1688    0.0000 C   0  0  0  0  0  0  0  0  0  0  0  0
    5.9674    1.1303    0.0000 C   0  0  0  0  0  0  0  0  0  0  0  0
    4.3211    1.6684    0.0000 C   0  0  0  0  0  0  0  0  0  0  0  0
    2.0000   -1.3312    0.0000 C   0  0  0  0  0  0  0  0  0  0  0  0
    6.2781    2.0808    0.0000 C   0  0  0  0  0  0  0  0  0  0  0  0
    4.6318    2.6189    0.0000 C   0  0  0  0  0  0  0  0  0  0  0  0
    5.6103    2.8251    0.0000 C   0  0  0  0  0  0  0  0  0  0  0  0
    5.2531    4.5200    0.0000 C   0  0  0  0  0  0  0  0  0  0  0  0
    5.4597   -2.1829    0.0000 H   0  0  0  0  0  0  0  0  0  0  0  0
    6.4336   -3.3194    0.0000 H   0  0  0  0  0  0  0  0  0  0  0  0
    6.1612   -2.4859    0.0000 H   0  0  0  0  0  0  0  0  0  0  0  0
    3.9836   -3.1977    0.0000 H   0  0  0  0  0  0  0  0  0  0  0  0
    4.2560   -4.0311    0.0000 H   0  0  0  0  0  0  0  0  0  0  0  0
    5.6209   -4.5200    0.0000 H   0  0  0  0  0  0  0  0  0  0  0  0
    6.3815    0.6689    0.0000 H   0  0  0  0  0  0  0  0  0  0  0  0
    3.7144    1.5406    0.0000 H   0  0  0  0  0  0  0  0  0  0  0  0
    1.4631   -1.6412    0.0000 H   0  0  0  0  0  0  0  0  0  0  0  0
    2.3291    1.4788    0.0000 H   0  0  0  0  0  0  0  0  0  0  0  0
    3.4030    1.4788    0.0000 H   0  0  0  0  0  0  0  0  0  0  0  0
    4.2177    3.0804    0.0000 H   0  0  0  0  0  0  0  0  0  0  0  0
    7.6707    1.8256    0.0000 H   0  0  0  0  0  0  0  0  0  0  0  0
    5.7145    4.9340    0.0000 H   0  0  0  0  0  0  0  0  0  0  0  0
    4.8390    4.9814    0.0000 H   0  0  0  0  0  0  0  0  0  0  0  0
    4.7916    4.1059    0.0000 H   0  0  0  0  0  0  0  0  0  0  0  0
  1 22  1  0  0  0  0
  1 23  1  0  0  0  0
  2 20  1  0  0  0  0
  2 36  1  0  0  0  0
  3 10  1  0  0  0  0
  3 11  1  0  0  0  0
  3 29  1  0  0  0  0
  4  5  1  0  0  0  0
  4  9  1  0  0  0  0
  4 12  1  0  0  0  0
  5 14  2  0  0  0  0
  6 12  2  0  0  0  0
  6 19  1  0  0  0  0
  7 16  1  0  0  0  0
  7 19  2  0  0  0  0
  8 16  1  0  0  0  0
  8 33  1  0  0  0  0
  8 34  1  0  0  0  0
  9 10  1  0  0  0  0
  9 11  1  0  0  0  0
  9 24  1  0  0  0  0
 10 25  1  0  0  0  0
 10 26  1  0  0  0  0
 11 27  1  0  0  0  0
 11 28  1  0  0  0  0
 12 13  1  0  0  0  0
 13 14  1  0  0  0  0
 13 16  2  0  0  0  0
 14 15  1  0  0  0  0
 15 17  2  0  0  0  0
 15 18  1  0  0  0  0
 17 20  1  0  0  0  0
 17 30  1  0  0  0  0
 18 21  2  0  0  0  0
 18 31  1  0  0  0  0
 19 32  1  0  0  0  0
 20 22  2  0  0  0  0
 21 22  1  0  0  0  0
 21 35  1  0  0  0  0
 23 37  1  0  0  0  0
 23 38  1  0  0  0  0
 23 39  1  0  0  0  0
M  END
> <PUBCHEM_COMPOUND_CID>
24905313

> <PUBCHEM_COMPOUND_CANONICALIZED>
1

> <PUBCHEM_CACTVS_COMPLEXITY>
423

> <PUBCHEM_CACTVS_HBOND_ACCEPTOR>
7

> <PUBCHEM_CACTVS_HBOND_DONOR>
3

> <PUBCHEM_CACTVS_ROTATABLE_BOND>
3

> <PUBCHEM_CACTVS_SUBSKEYS>
AAADceBzsAAAAAAAAAAAAAAAAABYAWAAAAA8QAAAAAAAAFgB/AAAHgAYCAAADCzBnwY3tt7IFgCiAyZjZACSjCsxoKAd2KAuzJiNbqLG+duU9Cts2BPL+Cew0PEOIAABAAAAQABAAAIAAACAAAAAAAAAAA==

> <PUBCHEM_IUPAC_OPENEYE_NAME>
5-[4-amino-1-(azetidin-3-yl)pyrazolo[3,4-d]pyrimidin-3-yl]-2-methoxy-phenol

> <PUBCHEM_IUPAC_CAS_NAME>
5-[4-amino-1-(3-azetidinyl)-3-pyrazolo[3,4-d]pyrimidinyl]-2-methoxyphenol

> <PUBCHEM_IUPAC_NAME_MARKUP>
5-[4-amino-1-(azetidin-3-yl)pyrazolo[3,4-d]pyrimidin-3-yl]-2-methoxyphenol

> <PUBCHEM_IUPAC_NAME>
5-[4-amino-1-(azetidin-3-yl)pyrazolo[3,4-d]pyrimidin-3-yl]-2-methoxyphenol

> <PUBCHEM_IUPAC_SYSTEMATIC_NAME>
5-[4-azanyl-1-(azetidin-3-yl)pyrazolo[3,4-d]pyrimidin-3-yl]-2-methoxy-phenol

> <PUBCHEM_IUPAC_TRADITIONAL_NAME>
5-[4-amino-1-(azetidin-3-yl)pyrazolo[3,4-d]pyrimidin-3-yl]-2-methoxy-phenol

> <PUBCHEM_IUPAC_INCHI>
InChI=1S/C15H16N6O2/c1-23-11-3-2-8(4-10(11)22)13-12-14(16)18-7-19-15(12)21(20-13)9-5-17-6-9/h2-4,7,9,17,22H,5-6H2,1H3,(H2,16,18,19)

> <PUBCHEM_IUPAC_INCHIKEY>
LBRPXBJBDBBMNZ-UHFFFAOYSA-N

> <PUBCHEM_XLOGP3_AA>
0.4

> <PUBCHEM_EXACT_MASS>
312.13347377

> <PUBCHEM_MOLECULAR_FORMULA>
C15H16N6O2

> <PUBCHEM_MOLECULAR_WEIGHT>
312.33

> <PUBCHEM_SMILES>
COC1=C(C=C(C=C1)C2=NN(C3=NC=NC(=C23)N)C4CNC4)O

> <PUBCHEM_OPENEYE_CAN_SMILES>
COC1=C(C=C(C=C1)C2=NN(C3=NC=NC(=C23)N)C4CNC4)O

> <PUBCHEM_OPENEYE_ISO_SMILES>
COC1=C(C=C(C=C1)C2=NN(C3=NC=NC(=C23)N)C4CNC4)O

> <PUBCHEM_CACTVS_TPSA>
111

> <PUBCHEM_MONOISOTOPIC_WEIGHT>
312.13347377

> <PUBCHEM_TOTAL_CHARGE>
0

> <PUBCHEM_HEAVY_ATOM_COUNT>
23

> <PUBCHEM_ATOM_DEF_STEREO_COUNT>
0

> <PUBCHEM_ATOM_UDEF_STEREO_COUNT>
0

> <PUBCHEM_BOND_DEF_STEREO_COUNT>
0

> <PUBCHEM_BOND_UDEF_STEREO_COUNT>
0

> <PUBCHEM_ISOTOPIC_ATOM_COUNT>
0

> <PUBCHEM_COMPONENT_COUNT>
1

> <PUBCHEM_CACTVS_TAUTO_COUNT>
-1

> <PUBCHEM_COORDINATE_TYPE>
1
5
255

> <PUBCHEM_BONDANNOTATIONS>
12  13  8
13  14  8
13  16  8
15  17  8
15  18  8
17  20  8
18  21  8
20  22  8
21  22  8
4  12  8
4  5  8
5  14  8
6  12  8
6  19  8
7  16  8
7  19  8

$$$$
