53324451
  -OEChem-03202500252D

 49 50  0     1  0  0  0  0  0999 V2000
    2.8660    1.9400    0.0000 O   0  0  0  0  0  0  0  0  0  0  0  0
    6.3301   -1.0600    0.0000 O   0  0  0  0  0  0  0  0  0  0  0  0
    9.8602    1.9642    0.0000 O   0  0  0  0  0  0  0  0  0  0  0  0
    8.0785   -1.0946    0.0000 O   0  0  0  0  0  0  0  0  0  0  0  0
    2.0000    0.4400    0.0000 O   0  0  0  0  0  0  0  0  0  0  0  0
    5.4641    0.4400    0.0000 O   0  0  0  0  0  0  0  0  0  0  0  0
    4.5981    1.9400    0.0000 C   0  0  0  0  0  0  0  0  0  0  0  0
    5.4641    1.4400    0.0000 C   0  0  0  0  0  0  0  0  0  0  0  0
    3.7320    1.4400    0.0000 C   0  0  1  0  0  0  0  0  0  0  0  0
    6.3301    1.9400    0.0000 C   0  0  0  0  0  0  0  0  0  0  0  0
    7.1962    1.4400    0.0000 C   0  0  0  0  0  0  0  0  0  0  0  0
    3.7320    0.4400    0.0000 C   0  0  0  0  0  0  0  0  0  0  0  0
    7.1962    0.4400    0.0000 C   0  0  0  0  0  0  0  0  0  0  0  0
    8.0901    1.9747    0.0000 C   0  0  0  0  0  0  0  0  0  0  0  0
    5.4641   -1.5600    0.0000 C   0  0  2  0  0  0  0  0  0  0  0  0
    2.8660   -0.0600    0.0000 C   0  0  0  0  0  0  0  0  0  0  0  0
    4.5981   -1.0600    0.0000 C   0  0  0  0  0  0  0  0  0  0  0  0
    8.0901   -0.0947    0.0000 C   0  0  0  0  0  0  0  0  0  0  0  0
    6.3301   -0.0600    0.0000 C   0  0  0  0  0  0  0  0  0  0  0  0
    8.9962    1.4608    0.0000 C   0  0  0  0  0  0  0  0  0  0  0  0
    2.8660   -1.0600    0.0000 C   0  0  0  0  0  0  0  0  0  0  0  0
    8.9962    0.4192    0.0000 C   0  0  0  0  0  0  0  0  0  0  0  0
    3.7320   -1.5600    0.0000 C   0  0  0  0  0  0  0  0  0  0  0  0
    5.4641   -2.5600    0.0000 C   0  0  0  0  0  0  0  0  0  0  0  0
   10.7282    1.4675    0.0000 C   0  0  0  0  0  0  0  0  0  0  0  0
    4.9966    2.4150    0.0000 H   0  0  0  0  0  0  0  0  0  0  0  0
    4.1996    2.4150    0.0000 H   0  0  0  0  0  0  0  0  0  0  0  0
    5.0656    0.9651    0.0000 H   0  0  0  0  0  0  0  0  0  0  0  0
    5.8626    0.9651    0.0000 H   0  0  0  0  0  0  0  0  0  0  0  0
    3.7320    2.0600    0.0000 H   0  0  0  0  0  0  0  0  0  0  0  0
    6.7287    2.4150    0.0000 H   0  0  0  0  0  0  0  0  0  0  0  0
    5.9316    2.4150    0.0000 H   0  0  0  0  0  0  0  0  0  0  0  0
    3.9441   -0.1426    0.0000 H   0  0  0  0  0  0  0  0  0  0  0  0
    4.3426    0.5477    0.0000 H   0  0  0  0  0  0  0  0  0  0  0  0
    8.0829    2.5946    0.0000 H   0  0  0  0  0  0  0  0  0  0  0  0
    6.0010   -1.8700    0.0000 H   0  0  0  0  0  0  0  0  0  0  0  0
    4.9966   -0.5851    0.0000 H   0  0  0  0  0  0  0  0  0  0  0  0
    4.1996   -0.5851    0.0000 H   0  0  0  0  0  0  0  0  0  0  0  0
    2.8660    2.5600    0.0000 H   0  0  0  0  0  0  0  0  0  0  0  0
    2.3291   -1.3700    0.0000 H   0  0  0  0  0  0  0  0  0  0  0  0
    9.5319    0.1071    0.0000 H   0  0  0  0  0  0  0  0  0  0  0  0
    3.7320   -2.1800    0.0000 H   0  0  0  0  0  0  0  0  0  0  0  0
    4.8441   -2.5600    0.0000 H   0  0  0  0  0  0  0  0  0  0  0  0
    5.4641   -3.1800    0.0000 H   0  0  0  0  0  0  0  0  0  0  0  0
    6.0841   -2.5600    0.0000 H   0  0  0  0  0  0  0  0  0  0  0  0
    8.6118   -1.4108    0.0000 H   0  0  0  0  0  0  0  0  0  0  0  0
   10.4203    0.9294    0.0000 H   0  0  0  0  0  0  0  0  0  0  0  0
   11.2663    1.1596    0.0000 H   0  0  0  0  0  0  0  0  0  0  0  0
   11.0361    2.0056    0.0000 H   0  0  0  0  0  0  0  0  0  0  0  0
  9  1  1  1  0  0  0
  1 39  1  0  0  0  0
  2 15  1  0  0  0  0
  2 19  1  0  0  0  0
  3 20  1  0  0  0  0
  3 25  1  0  0  0  0
  4 18  1  0  0  0  0
  4 46  1  0  0  0  0
  5 16  2  0  0  0  0
  6 19  2  0  0  0  0
  7  8  1  0  0  0  0
  7  9  1  0  0  0  0
  7 26  1  0  0  0  0
  7 27  1  0  0  0  0
  8 10  1  0  0  0  0
  8 28  1  0  0  0  0
  8 29  1  0  0  0  0
  9 12  1  0  0  0  0
  9 30  1  0  0  0  0
 10 11  1  0  0  0  0
 10 31  1  0  0  0  0
 10 32  1  0  0  0  0
 11 13  2  0  0  0  0
 11 14  1  0  0  0  0
 12 16  1  0  0  0  0
 12 33  1  0  0  0  0
 12 34  1  0  0  0  0
 13 18  1  0  0  0  0
 13 19  1  0  0  0  0
 14 20  2  0  0  0  0
 14 35  1  0  0  0  0
 15 17  1  0  0  0  0
 15 24  1  1  0  0  0
 15 36  1  0  0  0  0
 16 21  1  0  0  0  0
 17 23  1  0  0  0  0
 17 37  1  0  0  0  0
 17 38  1  0  0  0  0
 18 22  2  0  0  0  0
 20 22  1  0  0  0  0
 21 23  2  0  0  0  0
 21 40  1  0  0  0  0
 22 41  1  0  0  0  0
 23 42  1  0  0  0  0
 24 43  1  0  0  0  0
 24 44  1  0  0  0  0
 24 45  1  0  0  0  0
 25 47  1  0  0  0  0
 25 48  1  0  0  0  0
 25 49  1  0  0  0  0
M  END
> <PUBCHEM_COMPOUND_CID>
53324451

> <PUBCHEM_COMPOUND_CANONICALIZED>
1

> <PUBCHEM_CACTVS_COMPLEXITY>
488

> <PUBCHEM_CACTVS_HBOND_ACCEPTOR>
6

> <PUBCHEM_CACTVS_HBOND_DONOR>
2

> <PUBCHEM_CACTVS_ROTATABLE_BOND>
1

> <PUBCHEM_CACTVS_SUBSKEYS>
AAADceB4OAAAAAAAAAAAAAAAAAAAAAAAAAAwAAAAAAAAAAABAAAAGgAACAAADBSgmAIyDoAABgCIAqDSCAACCAAkIAAIiAEGCMgMNzaGNRqCcWAl4BUIuYeI7PzOoAABCAAYAABAAAIQADAAAAAAAAAAAA==

> <PUBCHEM_IUPAC_OPENEYE_NAME>
(4S,6Z,10S)-10,18-dihydroxy-16-methoxy-4-methyl-3-oxabicyclo[12.4.0]octadeca-1(14),6,15,17-tetraene-2,8-dione

> <PUBCHEM_IUPAC_CAS_NAME>
(4S,6Z,10S)-10,18-dihydroxy-16-methoxy-4-methyl-3-oxabicyclo[12.4.0]octadeca-1(14),6,15,17-tetraene-2,8-dione

> <PUBCHEM_IUPAC_NAME_MARKUP>
(4<I>S</I>,6<I>Z</I>,10<I>S</I>)-10,18-dihydroxy-16-methoxy-4-methyl-3-oxabicyclo[12.4.0]octadeca-1(14),6,15,17-tetraene-2,8-dione

> <PUBCHEM_IUPAC_NAME>
(4S,6Z,10S)-10,18-dihydroxy-16-methoxy-4-methyl-3-oxabicyclo[12.4.0]octadeca-1(14),6,15,17-tetraene-2,8-dione

> <PUBCHEM_IUPAC_SYSTEMATIC_NAME>
(4S,6Z,10S)-16-methoxy-4-methyl-10,18-bis(oxidanyl)-3-oxabicyclo[12.4.0]octadeca-1(14),6,15,17-tetraene-2,8-dione

> <PUBCHEM_IUPAC_TRADITIONAL_NAME>
(4S,6Z,10S)-10,18-dihydroxy-16-methoxy-4-methyl-3-oxabicyclo[12.4.0]octadeca-1(14),6,15,17-tetraene-2,8-quinone

> <PUBCHEM_IUPAC_INCHI>
InChI=1S/C19H24O6/c1-12-5-3-7-14(20)10-15(21)8-4-6-13-9-16(24-2)11-17(22)18(13)19(23)25-12/h3,7,9,11-12,15,21-22H,4-6,8,10H2,1-2H3/b7-3-/t12-,15-/m0/s1

> <PUBCHEM_IUPAC_INCHIKEY>
QMEZKJBCLUGJTN-APQFZBCISA-N

> <PUBCHEM_XLOGP3_AA>
3

> <PUBCHEM_EXACT_MASS>
348.15728848

> <PUBCHEM_MOLECULAR_FORMULA>
C19H24O6

> <PUBCHEM_MOLECULAR_WEIGHT>
348.4

> <PUBCHEM_SMILES>
C[C@H]1C/C=C\C(=O)C[C@H](CCCC2=C(C(=CC(=C2)OC)O)C(=O)O1)O

> <PUBCHEM_OPENEYE_CAN_SMILES>
CC1CC=CC(=O)CC(CCCC2=C(C(=CC(=C2)OC)O)C(=O)O1)O

> <PUBCHEM_OPENEYE_ISO_SMILES>
C[C@H]1C/C=C\C(=O)C[C@H](CCCC2=C(C(=CC(=C2)OC)O)C(=O)O1)O

> <PUBCHEM_CACTVS_TPSA>
93.1

> <PUBCHEM_MONOISOTOPIC_WEIGHT>
348.15728848

> <PUBCHEM_TOTAL_CHARGE>
0

> <PUBCHEM_HEAVY_ATOM_COUNT>
25

> <PUBCHEM_ATOM_DEF_STEREO_COUNT>
2

> <PUBCHEM_ATOM_UDEF_STEREO_COUNT>
0

> <PUBCHEM_BOND_DEF_STEREO_COUNT>
1

> <PUBCHEM_BOND_UDEF_STEREO_COUNT>
0

> <PUBCHEM_ISOTOPIC_ATOM_COUNT>
0

> <PUBCHEM_COMPONENT_COUNT>
1

> <PUBCHEM_CACTVS_TAUTO_COUNT>
-1

> <PUBCHEM_COORDINATE_TYPE>
1
5
255

> <PUBCHEM_BONDANNOTATIONS>
9  1  5
11  13  8
11  14  8
13  18  8
14  20  8
15  24  5
18  22  8
20  22  8

$$$$
