11729563
  -OEChem-03202506562D

 56 61  0     0  0  0  0  0  0999 V2000
    3.4026    2.8888    0.0000 O   0  0  0  0  0  0  0  0  0  0  0  0
    6.7523    3.9708    0.0000 O   0  0  0  0  0  0  0  0  0  0  0  0
    4.6783   -0.4830    0.0000 N   0  0  0  0  0  0  0  0  0  0  0  0
    5.6103   -3.3345    0.0000 N   0  0  0  0  0  0  0  0  0  0  0  0
    4.9917    3.6951    0.0000 N   0  0  0  0  0  0  0  0  0  0  0  0
    7.6900    0.4899    0.0000 N   0  0  0  0  0  0  0  0  0  0  0  0
    4.9889   -1.4335    0.0000 C   0  0  0  0  0  0  0  0  0  0  0  0
    4.3211   -2.1778    0.0000 C   0  0  0  0  0  0  0  0  0  0  0  0
    5.9674   -1.6397    0.0000 C   0  0  0  0  0  0  0  0  0  0  0  0
    4.6318   -3.1283    0.0000 C   0  0  0  0  0  0  0  0  0  0  0  0
    6.2781   -2.5902    0.0000 C   0  0  0  0  0  0  0  0  0  0  0  0
    3.7320   -0.1782    0.0000 C   0  0  0  0  0  0  0  0  0  0  0  0
    5.2619    0.3218    0.0000 C   0  0  0  0  0  0  0  0  0  0  0  0
    4.6783    1.1265    0.0000 C   0  0  0  0  0  0  0  0  0  0  0  0
    3.7320    0.8218    0.0000 C   0  0  0  0  0  0  0  0  0  0  0  0
    5.9209   -4.2850    0.0000 C   0  0  0  0  0  0  0  0  0  0  0  0
    4.9889    2.0770    0.0000 C   0  0  0  0  0  0  0  0  0  0  0  0
    2.8660   -0.6782    0.0000 C   0  0  0  0  0  0  0  0  0  0  0  0
    2.8660    1.3218    0.0000 C   0  0  0  0  0  0  0  0  0  0  0  0
    5.9405    2.3844    0.0000 C   0  0  0  0  0  0  0  0  0  0  0  0
    2.0000   -0.1782    0.0000 C   0  0  0  0  0  0  0  0  0  0  0  0
    4.4026    2.8871    0.0000 C   0  0  0  0  0  0  0  0  0  0  0  0
    2.0000    0.8218    0.0000 C   0  0  0  0  0  0  0  0  0  0  0  0
    6.7485    1.7952    0.0000 C   0  0  0  0  0  0  0  0  0  0  0  0
    5.9422    3.3844    0.0000 C   0  0  0  0  0  0  0  0  0  0  0  0
    7.6942    2.1016    0.0000 C   0  0  0  0  0  0  0  0  0  0  0  0
    6.7459    0.8011    0.0000 C   0  0  0  0  0  0  0  0  0  0  0  0
    8.2792    1.2905    0.0000 C   0  0  0  0  0  0  0  0  0  0  0  0
    8.1041    3.0137    0.0000 C   0  0  0  0  0  0  0  0  0  0  0  0
    9.2741    1.3916    0.0000 C   0  0  0  0  0  0  0  0  0  0  0  0
    9.0990    3.1148    0.0000 C   0  0  0  0  0  0  0  0  0  0  0  0
    9.6840    2.3038    0.0000 C   0  0  0  0  0  0  0  0  0  0  0  0
    5.4030   -0.9720    0.0000 H   0  0  0  0  0  0  0  0  0  0  0  0
    3.9385   -1.6899    0.0000 H   0  0  0  0  0  0  0  0  0  0  0  0
    3.7742   -2.4698    0.0000 H   0  0  0  0  0  0  0  0  0  0  0  0
    6.5812   -1.5523    0.0000 H   0  0  0  0  0  0  0  0  0  0  0  0
    5.9880   -1.0200    0.0000 H   0  0  0  0  0  0  0  0  0  0  0  0
    4.0179   -3.2156    0.0000 H   0  0  0  0  0  0  0  0  0  0  0  0
    4.6112   -3.7480    0.0000 H   0  0  0  0  0  0  0  0  0  0  0  0
    6.6607   -3.0781    0.0000 H   0  0  0  0  0  0  0  0  0  0  0  0
    6.8250   -2.2982    0.0000 H   0  0  0  0  0  0  0  0  0  0  0  0
    5.8819    0.3218    0.0000 H   0  0  0  0  0  0  0  0  0  0  0  0
    5.3316   -4.4776    0.0000 H   0  0  0  0  0  0  0  0  0  0  0  0
    6.1135   -4.8744    0.0000 H   0  0  0  0  0  0  0  0  0  0  0  0
    6.5102   -4.0924    0.0000 H   0  0  0  0  0  0  0  0  0  0  0  0
    2.8660   -1.2982    0.0000 H   0  0  0  0  0  0  0  0  0  0  0  0
    2.8660    1.9418    0.0000 H   0  0  0  0  0  0  0  0  0  0  0  0
    1.4631   -0.4882    0.0000 H   0  0  0  0  0  0  0  0  0  0  0  0
    1.4631    1.1318    0.0000 H   0  0  0  0  0  0  0  0  0  0  0  0
    4.8012    4.2850    0.0000 H   0  0  0  0  0  0  0  0  0  0  0  0
    6.2431    0.4384    0.0000 H   0  0  0  0  0  0  0  0  0  0  0  0
    7.8786   -0.1008    0.0000 H   0  0  0  0  0  0  0  0  0  0  0  0
    7.7414    3.5166    0.0000 H   0  0  0  0  0  0  0  0  0  0  0  0
    9.6368    0.8888    0.0000 H   0  0  0  0  0  0  0  0  0  0  0  0
    9.3531    3.6803    0.0000 H   0  0  0  0  0  0  0  0  0  0  0  0
   10.3008    2.3664    0.0000 H   0  0  0  0  0  0  0  0  0  0  0  0
  1 22  2  0  0  0  0
  2 25  2  0  0  0  0
  3  7  1  0  0  0  0
  3 12  1  0  0  0  0
  3 13  1  0  0  0  0
  4 10  1  0  0  0  0
  4 11  1  0  0  0  0
  4 16  1  0  0  0  0
  5 22  1  0  0  0  0
  5 25  1  0  0  0  0
  5 50  1  0  0  0  0
  6 27  1  0  0  0  0
  6 28  1  0  0  0  0
  6 52  1  0  0  0  0
  7  8  1  0  0  0  0
  7  9  1  0  0  0  0
  7 33  1  0  0  0  0
  8 10  1  0  0  0  0
  8 34  1  0  0  0  0
  8 35  1  0  0  0  0
  9 11  1  0  0  0  0
  9 36  1  0  0  0  0
  9 37  1  0  0  0  0
 10 38  1  0  0  0  0
 10 39  1  0  0  0  0
 11 40  1  0  0  0  0
 11 41  1  0  0  0  0
 12 15  1  0  0  0  0
 12 18  2  0  0  0  0
 13 14  2  0  0  0  0
 13 42  1  0  0  0  0
 14 15  1  0  0  0  0
 14 17  1  0  0  0  0
 15 19  2  0  0  0  0
 16 43  1  0  0  0  0
 16 44  1  0  0  0  0
 16 45  1  0  0  0  0
 17 20  2  0  0  0  0
 17 22  1  0  0  0  0
 18 21  1  0  0  0  0
 18 46  1  0  0  0  0
 19 23  1  0  0  0  0
 19 47  1  0  0  0  0
 20 24  1  0  0  0  0
 20 25  1  0  0  0  0
 21 23  2  0  0  0  0
 21 48  1  0  0  0  0
 23 49  1  0  0  0  0
 24 26  1  0  0  0  0
 24 27  2  0  0  0  0
 26 28  1  0  0  0  0
 26 29  2  0  0  0  0
 27 51  1  0  0  0  0
 28 30  2  0  0  0  0
 29 31  1  0  0  0  0
 29 53  1  0  0  0  0
 30 32  1  0  0  0  0
 30 54  1  0  0  0  0
 31 32  2  0  0  0  0
 31 55  1  0  0  0  0
 32 56  1  0  0  0  0
M  END
> <PUBCHEM_COMPOUND_CID>
11729563

> <PUBCHEM_COMPOUND_CANONICALIZED>
1

> <PUBCHEM_CACTVS_COMPLEXITY>
802

> <PUBCHEM_CACTVS_HBOND_ACCEPTOR>
3

> <PUBCHEM_CACTVS_HBOND_DONOR>
2

> <PUBCHEM_CACTVS_ROTATABLE_BOND>
3

> <PUBCHEM_CACTVS_SUBSKEYS>
AAADceB7sAAAAAAAAAAAAAAAAAAAAWLEAAA8YIAAAAAAAFgB/gAAHgAQAAAADCjBngQ+wPPNkACoAzV3VACCgCAxAiAI2aE4ZNgIIPLA1ZGEIAhglCDIyQccicCegAAAAAACAAAAAAAAAAQAAAAAAAAAAA==

> <PUBCHEM_IUPAC_OPENEYE_NAME>
3-(1H-indol-3-yl)-4-[1-(1-methyl-4-piperidyl)indol-3-yl]pyrrole-2,5-dione

> <PUBCHEM_IUPAC_CAS_NAME>
3-(1H-indol-3-yl)-4-[1-(1-methyl-4-piperidinyl)-3-indolyl]pyrrole-2,5-dione

> <PUBCHEM_IUPAC_NAME_MARKUP>
3-(1<I>H</I>-indol-3-yl)-4-[1-(1-methylpiperidin-4-yl)indol-3-yl]pyrrole-2,5-dione

> <PUBCHEM_IUPAC_NAME>
3-(1H-indol-3-yl)-4-[1-(1-methylpiperidin-4-yl)indol-3-yl]pyrrole-2,5-dione

> <PUBCHEM_IUPAC_SYSTEMATIC_NAME>
3-(1H-indol-3-yl)-4-[1-(1-methylpiperidin-4-yl)indol-3-yl]pyrrole-2,5-dione

> <PUBCHEM_IUPAC_TRADITIONAL_NAME>
3-(1H-indol-3-yl)-4-[1-(1-methyl-4-piperidyl)indol-3-yl]-3-pyrroline-2,5-quinone

> <PUBCHEM_IUPAC_INCHI>
InChI=1S/C26H24N4O2/c1-29-12-10-16(11-13-29)30-15-20(18-7-3-5-9-22(18)30)24-23(25(31)28-26(24)32)19-14-27-21-8-4-2-6-17(19)21/h2-9,14-16,27H,10-13H2,1H3,(H,28,31,32)

> <PUBCHEM_IUPAC_INCHIKEY>
HCJOTKSJPHFVJC-UHFFFAOYSA-N

> <PUBCHEM_XLOGP3_AA>
3.3

> <PUBCHEM_EXACT_MASS>
424.18992602

> <PUBCHEM_MOLECULAR_FORMULA>
C26H24N4O2

> <PUBCHEM_MOLECULAR_WEIGHT>
424.5

> <PUBCHEM_SMILES>
CN1CCC(CC1)N2C=C(C3=CC=CC=C32)C4=C(C(=O)NC4=O)C5=CNC6=CC=CC=C65

> <PUBCHEM_OPENEYE_CAN_SMILES>
CN1CCC(CC1)N2C=C(C3=CC=CC=C32)C4=C(C(=O)NC4=O)C5=CNC6=CC=CC=C65

> <PUBCHEM_OPENEYE_ISO_SMILES>
CN1CCC(CC1)N2C=C(C3=CC=CC=C32)C4=C(C(=O)NC4=O)C5=CNC6=CC=CC=C65

> <PUBCHEM_CACTVS_TPSA>
70.1

> <PUBCHEM_MONOISOTOPIC_WEIGHT>
424.18992602

> <PUBCHEM_TOTAL_CHARGE>
0

> <PUBCHEM_HEAVY_ATOM_COUNT>
32

> <PUBCHEM_ATOM_DEF_STEREO_COUNT>
0

> <PUBCHEM_ATOM_UDEF_STEREO_COUNT>
0

> <PUBCHEM_BOND_DEF_STEREO_COUNT>
0

> <PUBCHEM_BOND_UDEF_STEREO_COUNT>
0

> <PUBCHEM_ISOTOPIC_ATOM_COUNT>
0

> <PUBCHEM_COMPONENT_COUNT>
1

> <PUBCHEM_CACTVS_TAUTO_COUNT>
-1

> <PUBCHEM_COORDINATE_TYPE>
1
5
255

> <PUBCHEM_BONDANNOTATIONS>
12  15  8
12  18  8
13  14  8
14  15  8
15  19  8
18  21  8
19  23  8
21  23  8
24  26  8
24  27  8
26  28  8
26  29  8
28  30  8
29  31  8
3  12  8
3  13  8
30  32  8
31  32  8
6  27  8
6  28  8

$$$$
