16043242
  -OEChem-03202505062D

 43 46  0     0  0  0  0  0  0999 V2000
    4.6783   -4.3432    0.0000 S   0  0  0  0  0  0  0  0  0  0  0  0
    8.5458    0.7364    0.0000 F   0  0  0  0  0  0  0  0  0  0  0  0
    7.5673    0.5302    0.0000 O   0  0  0  0  0  0  0  0  0  0  0  0
    5.9209    1.0683    0.0000 N   0  0  0  0  0  0  0  0  0  0  0  0
    5.2619   -3.5385    0.0000 N   0  0  0  0  0  0  0  0  0  0  0  0
    7.2101    2.2250    0.0000 N   0  0  0  0  0  0  0  0  0  0  0  0
    2.8660   -4.5385    0.0000 N   0  0  0  0  0  0  0  0  0  0  0  0
    2.0000   -3.0385    0.0000 N   0  0  0  0  0  0  0  0  0  0  0  0
    2.8660   -1.5385    0.0000 N   0  0  0  0  0  0  0  0  0  0  0  0
    4.9889   -1.7833    0.0000 C   0  0  0  0  0  0  0  0  0  0  0  0
    4.6783   -2.7338    0.0000 C   0  0  0  0  0  0  0  0  0  0  0  0
    3.7320   -3.0385    0.0000 C   0  0  0  0  0  0  0  0  0  0  0  0
    5.6103    0.1178    0.0000 C   0  0  0  0  0  0  0  0  0  0  0  0
    4.3211   -1.0390    0.0000 C   0  0  0  0  0  0  0  0  0  0  0  0
    5.9674   -1.5770    0.0000 C   0  0  0  0  0  0  0  0  0  0  0  0
    4.6318   -0.0884    0.0000 C   0  0  0  0  0  0  0  0  0  0  0  0
    6.2781   -0.6265    0.0000 C   0  0  0  0  0  0  0  0  0  0  0  0
    3.7320   -4.0385    0.0000 C   0  0  0  0  0  0  0  0  0  0  0  0
    2.8660   -2.5385    0.0000 C   0  0  0  0  0  0  0  0  0  0  0  0
    8.1886    2.4313    0.0000 C   0  0  0  0  0  0  0  0  0  0  0  0
    9.4778    3.5880    0.0000 C   0  0  0  0  0  0  0  0  0  0  0  0
    8.4993    3.3818    0.0000 C   0  0  0  0  0  0  0  0  0  0  0  0
    6.8994    1.2745    0.0000 C   0  0  0  0  0  0  0  0  0  0  0  0
    8.8564    1.6870    0.0000 C   0  0  0  0  0  0  0  0  0  0  0  0
   10.1456    2.8437    0.0000 C   0  0  0  0  0  0  0  0  0  0  0  0
    9.8349    1.8932    0.0000 C   0  0  0  0  0  0  0  0  0  0  0  0
    9.7884    4.5385    0.0000 C   0  0  0  0  0  0  0  0  0  0  0  0
    2.0000   -4.0385    0.0000 C   0  0  0  0  0  0  0  0  0  0  0  0
    3.7144   -1.1668    0.0000 H   0  0  0  0  0  0  0  0  0  0  0  0
    6.3815   -2.0385    0.0000 H   0  0  0  0  0  0  0  0  0  0  0  0
    4.2177    0.3730    0.0000 H   0  0  0  0  0  0  0  0  0  0  0  0
    6.8848   -0.4987    0.0000 H   0  0  0  0  0  0  0  0  0  0  0  0
    5.5069    1.5298    0.0000 H   0  0  0  0  0  0  0  0  0  0  0  0
    8.0852    3.8432    0.0000 H   0  0  0  0  0  0  0  0  0  0  0  0
    6.7960    2.6865    0.0000 H   0  0  0  0  0  0  0  0  0  0  0  0
   10.7523    2.9716    0.0000 H   0  0  0  0  0  0  0  0  0  0  0  0
   10.2490    1.4317    0.0000 H   0  0  0  0  0  0  0  0  0  0  0  0
   10.3777    4.3459    0.0000 H   0  0  0  0  0  0  0  0  0  0  0  0
    9.9810    5.1278    0.0000 H   0  0  0  0  0  0  0  0  0  0  0  0
    9.1991    4.7311    0.0000 H   0  0  0  0  0  0  0  0  0  0  0  0
    1.4631   -4.3485    0.0000 H   0  0  0  0  0  0  0  0  0  0  0  0
    2.3291   -1.2285    0.0000 H   0  0  0  0  0  0  0  0  0  0  0  0
    3.4030   -1.2285    0.0000 H   0  0  0  0  0  0  0  0  0  0  0  0
  1  5  1  0  0  0  0
  1 18  1  0  0  0  0
  2 24  1  0  0  0  0
  3 23  2  0  0  0  0
  4 13  1  0  0  0  0
  4 23  1  0  0  0  0
  4 33  1  0  0  0  0
  5 11  2  0  0  0  0
  6 20  1  0  0  0  0
  6 23  1  0  0  0  0
  6 35  1  0  0  0  0
  7 18  2  0  0  0  0
  7 28  1  0  0  0  0
  8 19  1  0  0  0  0
  8 28  2  0  0  0  0
  9 19  1  0  0  0  0
  9 42  1  0  0  0  0
  9 43  1  0  0  0  0
 10 11  1  0  0  0  0
 10 14  2  0  0  0  0
 10 15  1  0  0  0  0
 11 12  1  0  0  0  0
 12 18  1  0  0  0  0
 12 19  2  0  0  0  0
 13 16  2  0  0  0  0
 13 17  1  0  0  0  0
 14 16  1  0  0  0  0
 14 29  1  0  0  0  0
 15 17  2  0  0  0  0
 15 30  1  0  0  0  0
 16 31  1  0  0  0  0
 17 32  1  0  0  0  0
 20 22  1  0  0  0  0
 20 24  2  0  0  0  0
 21 22  2  0  0  0  0
 21 25  1  0  0  0  0
 21 27  1  0  0  0  0
 22 34  1  0  0  0  0
 24 26  1  0  0  0  0
 25 26  2  0  0  0  0
 25 36  1  0  0  0  0
 26 37  1  0  0  0  0
 27 38  1  0  0  0  0
 27 39  1  0  0  0  0
 27 40  1  0  0  0  0
 28 41  1  0  0  0  0
M  END
> <PUBCHEM_COMPOUND_CID>
16043242

> <PUBCHEM_COMPOUND_CANONICALIZED>
1

> <PUBCHEM_CACTVS_COMPLEXITY>
549

> <PUBCHEM_CACTVS_HBOND_ACCEPTOR>
7

> <PUBCHEM_CACTVS_HBOND_DONOR>
3

> <PUBCHEM_CACTVS_ROTATABLE_BOND>
3

> <PUBCHEM_CACTVS_SUBSKEYS>
AAADccB7oQBAAAAAAAAAAAAAAAAAAWAAAAA8YIAAAAAAAFgB/AAAHwQQQAAADAiBXgw38dbIEACsAyZjdACD0DkxAqgJ2DAoZJiIKKLA2dGEJAxolAJIyCcQgMAOCAAAQAAAAAAQAACAAAAAAAAAAAAAAA==

> <PUBCHEM_IUPAC_OPENEYE_NAME>
1-[4-(4-aminoisothiazolo[5,4-d]pyrimidin-3-yl)phenyl]-3-(2-fluoro-5-methyl-phenyl)urea

> <PUBCHEM_IUPAC_CAS_NAME>
1-[4-(4-amino-3-isothiazolo[5,4-d]pyrimidinyl)phenyl]-3-(2-fluoro-5-methylphenyl)urea

> <PUBCHEM_IUPAC_NAME_MARKUP>
1-[4-(4-amino-[1,2]thiazolo[5,4-d]pyrimidin-3-yl)phenyl]-3-(2-fluoro-5-methylphenyl)urea

> <PUBCHEM_IUPAC_NAME>
1-[4-(4-amino-[1,2]thiazolo[5,4-d]pyrimidin-3-yl)phenyl]-3-(2-fluoro-5-methylphenyl)urea

> <PUBCHEM_IUPAC_SYSTEMATIC_NAME>
1-[4-(4-azanyl-[1,2]thiazolo[5,4-d]pyrimidin-3-yl)phenyl]-3-(2-fluoranyl-5-methyl-phenyl)urea

> <PUBCHEM_IUPAC_TRADITIONAL_NAME>
1-[4-(4-aminoisothiazolo[5,4-d]pyrimidin-3-yl)phenyl]-3-(2-fluoro-5-methyl-phenyl)urea

> <PUBCHEM_IUPAC_INCHI>
InChI=1S/C19H15FN6OS/c1-10-2-7-13(20)14(8-10)25-19(27)24-12-5-3-11(4-6-12)16-15-17(21)22-9-23-18(15)28-26-16/h2-9H,1H3,(H2,21,22,23)(H2,24,25,27)

> <PUBCHEM_IUPAC_INCHIKEY>
QKPLUKMJEKRAJD-UHFFFAOYSA-N

> <PUBCHEM_XLOGP3_AA>
3.3

> <PUBCHEM_EXACT_MASS>
394.10120846

> <PUBCHEM_MOLECULAR_FORMULA>
C19H15FN6OS

> <PUBCHEM_MOLECULAR_WEIGHT>
394.4

> <PUBCHEM_SMILES>
CC1=CC(=C(C=C1)F)NC(=O)NC2=CC=C(C=C2)C3=NSC4=NC=NC(=C34)N

> <PUBCHEM_OPENEYE_CAN_SMILES>
CC1=CC(=C(C=C1)F)NC(=O)NC2=CC=C(C=C2)C3=NSC4=NC=NC(=C34)N

> <PUBCHEM_OPENEYE_ISO_SMILES>
CC1=CC(=C(C=C1)F)NC(=O)NC2=CC=C(C=C2)C3=NSC4=NC=NC(=C34)N

> <PUBCHEM_CACTVS_TPSA>
134

> <PUBCHEM_MONOISOTOPIC_WEIGHT>
394.10120846

> <PUBCHEM_TOTAL_CHARGE>
0

> <PUBCHEM_HEAVY_ATOM_COUNT>
28

> <PUBCHEM_ATOM_DEF_STEREO_COUNT>
0

> <PUBCHEM_ATOM_UDEF_STEREO_COUNT>
0

> <PUBCHEM_BOND_DEF_STEREO_COUNT>
0

> <PUBCHEM_BOND_UDEF_STEREO_COUNT>
0

> <PUBCHEM_ISOTOPIC_ATOM_COUNT>
0

> <PUBCHEM_COMPONENT_COUNT>
1

> <PUBCHEM_CACTVS_TAUTO_COUNT>
-1

> <PUBCHEM_COORDINATE_TYPE>
1
5
255

> <PUBCHEM_BONDANNOTATIONS>
1  18  8
1  5  8
10  14  8
10  15  8
11  12  8
12  18  8
12  19  8
13  16  8
13  17  8
14  16  8
15  17  8
20  22  8
20  24  8
21  22  8
21  25  8
24  26  8
25  26  8
5  11  8
7  18  8
7  28  8
8  19  8
8  28  8

$$$$
