42618143
  -OEChem-03202506382D

 48 51  0     0  0  0  0  0  0999 V2000
    5.1350   -0.5950    0.0000 O   0  0  0  0  0  0  0  0  0  0  0  0
    5.1350   -3.5950    0.0000 N   0  0  0  0  0  0  0  0  0  0  0  0
    9.5331   -0.1158    0.0000 N   0  0  0  0  0  0  0  0  0  0  0  0
    2.5369    3.9050    0.0000 N   0  0  0  0  0  0  0  0  0  0  0  0
    5.1350   -1.5950    0.0000 C   0  0  0  0  0  0  0  0  0  0  0  0
    6.0010   -2.0950    0.0000 C   0  0  0  0  0  0  0  0  0  0  0  0
    4.2690   -2.0950    0.0000 C   0  0  0  0  0  0  0  0  0  0  0  0
    6.0010   -3.0950    0.0000 C   0  0  0  0  0  0  0  0  0  0  0  0
    4.2690   -3.0950    0.0000 C   0  0  0  0  0  0  0  0  0  0  0  0
    6.0010   -0.0950    0.0000 C   0  0  0  0  0  0  0  0  0  0  0  0
    6.0010    0.9050    0.0000 C   0  0  0  0  0  0  0  0  0  0  0  0
    6.8671   -0.5950    0.0000 C   0  0  0  0  0  0  0  0  0  0  0  0
    5.1350    1.4050    0.0000 C   0  0  0  0  0  0  0  0  0  0  0  0
    7.7331   -0.0950    0.0000 C   0  0  0  0  0  0  0  0  0  0  0  0
    6.8671    1.4050    0.0000 C   0  0  0  0  0  0  0  0  0  0  0  0
    7.7331    0.9050    0.0000 C   0  0  0  0  0  0  0  0  0  0  0  0
    5.1350    2.4050    0.0000 C   0  0  0  0  0  0  0  0  0  0  0  0
    4.2690    0.9050    0.0000 C   0  0  0  0  0  0  0  0  0  0  0  0
    8.6270    1.4397    0.0000 C   0  0  0  0  0  0  0  0  0  0  0  0
    8.6270   -0.6297    0.0000 C   0  0  0  0  0  0  0  0  0  0  0  0
    3.4030    2.4050    0.0000 C   0  0  0  0  0  0  0  0  0  0  0  0
    4.2690    2.9050    0.0000 C   0  0  0  0  0  0  0  0  0  0  0  0
    3.4030    1.4050    0.0000 C   0  0  0  0  0  0  0  0  0  0  0  0
    9.5331    0.9258    0.0000 C   0  0  0  0  0  0  0  0  0  0  0  0
    2.5369    2.9050    0.0000 C   0  0  0  0  0  0  0  0  0  0  0  0
    5.6720   -1.2850    0.0000 H   0  0  0  0  0  0  0  0  0  0  0  0
    6.6116   -2.2027    0.0000 H   0  0  0  0  0  0  0  0  0  0  0  0
    6.2131   -1.5124    0.0000 H   0  0  0  0  0  0  0  0  0  0  0  0
    4.0569   -1.5124    0.0000 H   0  0  0  0  0  0  0  0  0  0  0  0
    3.6584   -2.2027    0.0000 H   0  0  0  0  0  0  0  0  0  0  0  0
    6.2131   -3.6776    0.0000 H   0  0  0  0  0  0  0  0  0  0  0  0
    6.6116   -2.9873    0.0000 H   0  0  0  0  0  0  0  0  0  0  0  0
    3.6584   -2.9873    0.0000 H   0  0  0  0  0  0  0  0  0  0  0  0
    4.0569   -3.6776    0.0000 H   0  0  0  0  0  0  0  0  0  0  0  0
    5.1350   -4.2150    0.0000 H   0  0  0  0  0  0  0  0  0  0  0  0
    6.8671   -1.2150    0.0000 H   0  0  0  0  0  0  0  0  0  0  0  0
    6.8671    2.0250    0.0000 H   0  0  0  0  0  0  0  0  0  0  0  0
    5.6720    2.7150    0.0000 H   0  0  0  0  0  0  0  0  0  0  0  0
    4.2690    0.2850    0.0000 H   0  0  0  0  0  0  0  0  0  0  0  0
    8.6199    2.0596    0.0000 H   0  0  0  0  0  0  0  0  0  0  0  0
    8.6199   -1.2496    0.0000 H   0  0  0  0  0  0  0  0  0  0  0  0
    4.2690    3.5250    0.0000 H   0  0  0  0  0  0  0  0  0  0  0  0
    2.8660    1.0950    0.0000 H   0  0  0  0  0  0  0  0  0  0  0  0
   10.0688    1.2379    0.0000 H   0  0  0  0  0  0  0  0  0  0  0  0
    1.9264    3.0127    0.0000 H   0  0  0  0  0  0  0  0  0  0  0  0
    2.3249    2.3224    0.0000 H   0  0  0  0  0  0  0  0  0  0  0  0
    2.0000    4.2150    0.0000 H   0  0  0  0  0  0  0  0  0  0  0  0
    3.0739    4.2150    0.0000 H   0  0  0  0  0  0  0  0  0  0  0  0
  1  5  1  0  0  0  0
  1 10  1  0  0  0  0
  2  8  1  0  0  0  0
  2  9  1  0  0  0  0
  2 35  1  0  0  0  0
  3 20  2  0  0  0  0
  3 24  1  0  0  0  0
  4 25  1  0  0  0  0
  4 47  1  0  0  0  0
  4 48  1  0  0  0  0
  5  6  1  0  0  0  0
  5  7  1  0  0  0  0
  5 26  1  0  0  0  0
  6  8  1  0  0  0  0
  6 27  1  0  0  0  0
  6 28  1  0  0  0  0
  7  9  1  0  0  0  0
  7 29  1  0  0  0  0
  7 30  1  0  0  0  0
  8 31  1  0  0  0  0
  8 32  1  0  0  0  0
  9 33  1  0  0  0  0
  9 34  1  0  0  0  0
 10 11  2  0  0  0  0
 10 12  1  0  0  0  0
 11 13  1  0  0  0  0
 11 15  1  0  0  0  0
 12 14  2  0  0  0  0
 12 36  1  0  0  0  0
 13 17  2  0  0  0  0
 13 18  1  0  0  0  0
 14 16  1  0  0  0  0
 14 20  1  0  0  0  0
 15 16  2  0  0  0  0
 15 37  1  0  0  0  0
 16 19  1  0  0  0  0
 17 22  1  0  0  0  0
 17 38  1  0  0  0  0
 18 23  2  0  0  0  0
 18 39  1  0  0  0  0
 19 24  2  0  0  0  0
 19 40  1  0  0  0  0
 20 41  1  0  0  0  0
 21 22  2  0  0  0  0
 21 23  1  0  0  0  0
 21 25  1  0  0  0  0
 22 42  1  0  0  0  0
 23 43  1  0  0  0  0
 24 44  1  0  0  0  0
 25 45  1  0  0  0  0
 25 46  1  0  0  0  0
M  END
> <PUBCHEM_COMPOUND_CID>
42618143

> <PUBCHEM_COMPOUND_CANONICALIZED>
1

> <PUBCHEM_CACTVS_COMPLEXITY>
404

> <PUBCHEM_CACTVS_HBOND_ACCEPTOR>
4

> <PUBCHEM_CACTVS_HBOND_DONOR>
2

> <PUBCHEM_CACTVS_ROTATABLE_BOND>
4

> <PUBCHEM_CACTVS_SUBSKEYS>
AAADceB7IAAAAAAAAAAAAAAAAAAAAAAAAAA8eIEAAAAAAACx9AAAHgAQAAAADBThmgY8htLIFACgAjBnRACCiCAxIiAI2KA+bJgMJuLEsZuGOCjm0BHI6AewwPAO4AADAAAYAADAAAYAADAAAAAAAAAAAA==

> <PUBCHEM_IUPAC_OPENEYE_NAME>
[4-[7-(4-piperidyloxy)-6-isoquinolyl]phenyl]methanamine

> <PUBCHEM_IUPAC_CAS_NAME>
[4-[7-(4-piperidinyloxy)-6-isoquinolinyl]phenyl]methanamine

> <PUBCHEM_IUPAC_NAME_MARKUP>
[4-(7-piperidin-4-yloxyisoquinolin-6-yl)phenyl]methanamine

> <PUBCHEM_IUPAC_NAME>
[4-(7-piperidin-4-yloxyisoquinolin-6-yl)phenyl]methanamine

> <PUBCHEM_IUPAC_SYSTEMATIC_NAME>
[4-(7-piperidin-4-yloxyisoquinolin-6-yl)phenyl]methanamine

> <PUBCHEM_IUPAC_TRADITIONAL_NAME>
[4-[7-(4-piperidyloxy)-6-isoquinolyl]benzyl]amine

> <PUBCHEM_IUPAC_INCHI>
InChI=1S/C21H23N3O/c22-13-15-1-3-16(4-2-15)20-11-17-5-8-24-14-18(17)12-21(20)25-19-6-9-23-10-7-19/h1-5,8,11-12,14,19,23H,6-7,9-10,13,22H2

> <PUBCHEM_IUPAC_INCHIKEY>
DDEHKSKCGIBOPH-UHFFFAOYSA-N

> <PUBCHEM_XLOGP3_AA>
2.7

> <PUBCHEM_EXACT_MASS>
333.184112366

> <PUBCHEM_MOLECULAR_FORMULA>
C21H23N3O

> <PUBCHEM_MOLECULAR_WEIGHT>
333.4

> <PUBCHEM_SMILES>
C1CNCCC1OC2=C(C=C3C=CN=CC3=C2)C4=CC=C(C=C4)CN

> <PUBCHEM_OPENEYE_CAN_SMILES>
C1CNCCC1OC2=C(C=C3C=CN=CC3=C2)C4=CC=C(C=C4)CN

> <PUBCHEM_OPENEYE_ISO_SMILES>
C1CNCCC1OC2=C(C=C3C=CN=CC3=C2)C4=CC=C(C=C4)CN

> <PUBCHEM_CACTVS_TPSA>
60.2

> <PUBCHEM_MONOISOTOPIC_WEIGHT>
333.184112366

> <PUBCHEM_TOTAL_CHARGE>
0

> <PUBCHEM_HEAVY_ATOM_COUNT>
25

> <PUBCHEM_ATOM_DEF_STEREO_COUNT>
0

> <PUBCHEM_ATOM_UDEF_STEREO_COUNT>
0

> <PUBCHEM_BOND_DEF_STEREO_COUNT>
0

> <PUBCHEM_BOND_UDEF_STEREO_COUNT>
0

> <PUBCHEM_ISOTOPIC_ATOM_COUNT>
0

> <PUBCHEM_COMPONENT_COUNT>
1

> <PUBCHEM_CACTVS_TAUTO_COUNT>
-1

> <PUBCHEM_COORDINATE_TYPE>
1
5
255

> <PUBCHEM_BONDANNOTATIONS>
10  11  8
10  12  8
11  15  8
12  14  8
13  17  8
13  18  8
14  16  8
14  20  8
15  16  8
16  19  8
17  22  8
18  23  8
19  24  8
21  22  8
21  23  8
3  20  8
3  24  8

$$$$
