22736235
  -OEChem-03202507142D

 51 55  0     1  0  0  0  0  0999 V2000
    4.6844   -4.9173    0.0000 O   0  0  0  0  0  0  0  0  0  0  0  0
    5.9209    4.0144    0.0000 O   0  0  0  0  0  0  0  0  0  0  0  0
    4.6783   -1.3972    0.0000 N   0  0  0  0  0  0  0  0  0  0  0  0
    2.8660   -1.5924    0.0000 N   0  0  0  0  0  0  0  0  0  0  0  0
    2.0000   -0.0924    0.0000 N   0  0  0  0  0  0  0  0  0  0  0  0
    2.8660    1.4076    0.0000 N   0  0  0  0  0  0  0  0  0  0  0  0
    4.9889   -2.3477    0.0000 C   0  0  3  0  0  0  0  0  0  0  0  0
    4.4026   -3.1577    0.0000 C   0  0  0  0  0  0  0  0  0  0  0  0
    5.9405   -2.6551    0.0000 C   0  0  0  0  0  0  0  0  0  0  0  0
    4.9917   -3.9657    0.0000 C   0  0  3  0  0  0  0  0  0  0  0  0
    5.9422   -3.6551    0.0000 C   0  0  0  0  0  0  0  0  0  0  0  0
    3.7320   -1.0924    0.0000 C   0  0  0  0  0  0  0  0  0  0  0  0
    5.2619   -0.5924    0.0000 C   0  0  0  0  0  0  0  0  0  0  0  0
    3.7320   -0.0924    0.0000 C   0  0  0  0  0  0  0  0  0  0  0  0
    4.6783    0.2123    0.0000 C   0  0  0  0  0  0  0  0  0  0  0  0
    4.9889    1.1628    0.0000 C   0  0  0  0  0  0  0  0  0  0  0  0
    2.8660    0.4076    0.0000 C   0  0  0  0  0  0  0  0  0  0  0  0
    2.0000   -1.0924    0.0000 C   0  0  0  0  0  0  0  0  0  0  0  0
    4.3211    1.9071    0.0000 C   0  0  0  0  0  0  0  0  0  0  0  0
    5.9674    1.3690    0.0000 C   0  0  0  0  0  0  0  0  0  0  0  0
    4.6318    2.8576    0.0000 C   0  0  0  0  0  0  0  0  0  0  0  0
    6.2781    2.3196    0.0000 C   0  0  0  0  0  0  0  0  0  0  0  0
    5.6103    3.0639    0.0000 C   0  0  0  0  0  0  0  0  0  0  0  0
    6.8994    4.2206    0.0000 C   0  0  0  0  0  0  0  0  0  0  0  0
    7.5673    3.4763    0.0000 C   0  0  0  0  0  0  0  0  0  0  0  0
    7.2101    5.1711    0.0000 C   0  0  0  0  0  0  0  0  0  0  0  0
    8.5458    3.6825    0.0000 C   0  0  0  0  0  0  0  0  0  0  0  0
    8.1886    5.3773    0.0000 C   0  0  0  0  0  0  0  0  0  0  0  0
    8.8564    4.6330    0.0000 C   0  0  0  0  0  0  0  0  0  0  0  0
    5.4266   -1.9085    0.0000 H   0  0  0  0  0  0  0  0  0  0  0  0
    3.9411   -2.7437    0.0000 H   0  0  0  0  0  0  0  0  0  0  0  0
    3.9425   -3.5734    0.0000 H   0  0  0  0  0  0  0  0  0  0  0  0
    6.5572   -2.7188    0.0000 H   0  0  0  0  0  0  0  0  0  0  0  0
    6.0684   -2.0484    0.0000 H   0  0  0  0  0  0  0  0  0  0  0  0
    5.4309   -4.4034    0.0000 H   0  0  0  0  0  0  0  0  0  0  0  0
    6.0722   -4.2613    0.0000 H   0  0  0  0  0  0  0  0  0  0  0  0
    6.5587   -3.5892    0.0000 H   0  0  0  0  0  0  0  0  0  0  0  0
    5.8819   -0.5924    0.0000 H   0  0  0  0  0  0  0  0  0  0  0  0
    5.1000   -5.3773    0.0000 H   0  0  0  0  0  0  0  0  0  0  0  0
    1.4631   -1.4024    0.0000 H   0  0  0  0  0  0  0  0  0  0  0  0
    3.7144    1.7793    0.0000 H   0  0  0  0  0  0  0  0  0  0  0  0
    6.3815    0.9076    0.0000 H   0  0  0  0  0  0  0  0  0  0  0  0
    2.3291    1.7176    0.0000 H   0  0  0  0  0  0  0  0  0  0  0  0
    3.4030    1.7176    0.0000 H   0  0  0  0  0  0  0  0  0  0  0  0
    4.2177    3.3191    0.0000 H   0  0  0  0  0  0  0  0  0  0  0  0
    6.8848    2.4474    0.0000 H   0  0  0  0  0  0  0  0  0  0  0  0
    7.3747    2.8870    0.0000 H   0  0  0  0  0  0  0  0  0  0  0  0
    6.7960    5.6326    0.0000 H   0  0  0  0  0  0  0  0  0  0  0  0
    8.9598    3.2210    0.0000 H   0  0  0  0  0  0  0  0  0  0  0  0
    8.3812    5.9667    0.0000 H   0  0  0  0  0  0  0  0  0  0  0  0
    9.4631    4.7609    0.0000 H   0  0  0  0  0  0  0  0  0  0  0  0
  1 10  1  0  0  0  0
  1 39  1  0  0  0  0
  2 23  1  0  0  0  0
  2 24  1  0  0  0  0
  3  7  1  0  0  0  0
  3 12  1  0  0  0  0
  3 13  1  0  0  0  0
  4 12  2  0  0  0  0
  4 18  1  0  0  0  0
  5 17  1  0  0  0  0
  5 18  2  0  0  0  0
  6 17  1  0  0  0  0
  6 43  1  0  0  0  0
  6 44  1  0  0  0  0
  7  8  1  0  0  0  0
  7  9  1  0  0  0  0
  7 30  1  0  0  0  0
  8 10  1  0  0  0  0
  8 31  1  0  0  0  0
  8 32  1  0  0  0  0
  9 11  1  0  0  0  0
  9 33  1  0  0  0  0
  9 34  1  0  0  0  0
 10 11  1  0  0  0  0
 10 35  1  0  0  0  0
 11 36  1  0  0  0  0
 11 37  1  0  0  0  0
 12 14  1  0  0  0  0
 13 15  2  0  0  0  0
 13 38  1  0  0  0  0
 14 15  1  0  0  0  0
 14 17  2  0  0  0  0
 15 16  1  0  0  0  0
 16 19  2  0  0  0  0
 16 20  1  0  0  0  0
 18 40  1  0  0  0  0
 19 21  1  0  0  0  0
 19 41  1  0  0  0  0
 20 22  2  0  0  0  0
 20 42  1  0  0  0  0
 21 23  2  0  0  0  0
 21 45  1  0  0  0  0
 22 23  1  0  0  0  0
 22 46  1  0  0  0  0
 24 25  2  0  0  0  0
 24 26  1  0  0  0  0
 25 27  1  0  0  0  0
 25 47  1  0  0  0  0
 26 28  2  0  0  0  0
 26 48  1  0  0  0  0
 27 29  2  0  0  0  0
 27 49  1  0  0  0  0
 28 29  1  0  0  0  0
 28 50  1  0  0  0  0
 29 51  1  0  0  0  0
M  END
> <PUBCHEM_COMPOUND_CID>
22736235

> <PUBCHEM_COMPOUND_CANONICALIZED>
1

> <PUBCHEM_CACTVS_COMPLEXITY>
535

> <PUBCHEM_CACTVS_HBOND_ACCEPTOR>
5

> <PUBCHEM_CACTVS_HBOND_DONOR>
2

> <PUBCHEM_CACTVS_ROTATABLE_BOND>
4

> <PUBCHEM_CACTVS_SUBSKEYS>
AAADceB7sAAAAAAAAAAAAAAAAAAAAeIAAAA8YIAAAAAAAFgB/AAAHgAQCAAADDzhmwY9tt9MFgCgAjJnZACCiCkxIKAJ2CAuTJiMPmLE+duGfCjuwBPI6CewwPAOoAAAAAAAAABAAAAAAAAAAAEAAAAAAA==

> <PUBCHEM_IUPAC_OPENEYE_NAME>
3-[4-amino-5-(4-phenoxyphenyl)pyrrolo[2,3-d]pyrimidin-7-yl]cyclopentanol

> <PUBCHEM_IUPAC_CAS_NAME>
3-[4-amino-5-(4-phenoxyphenyl)-7-pyrrolo[2,3-d]pyrimidinyl]-1-cyclopentanol

> <PUBCHEM_IUPAC_NAME_MARKUP>
3-[4-amino-5-(4-phenoxyphenyl)pyrrolo[2,3-d]pyrimidin-7-yl]cyclopentan-1-ol

> <PUBCHEM_IUPAC_NAME>
3-[4-amino-5-(4-phenoxyphenyl)pyrrolo[2,3-d]pyrimidin-7-yl]cyclopentan-1-ol

> <PUBCHEM_IUPAC_SYSTEMATIC_NAME>
3-[4-azanyl-5-(4-phenoxyphenyl)pyrrolo[2,3-d]pyrimidin-7-yl]cyclopentan-1-ol

> <PUBCHEM_IUPAC_TRADITIONAL_NAME>
3-[4-amino-5-(4-phenoxyphenyl)pyrrolo[2,3-d]pyrimidin-7-yl]cyclopentanol

> <PUBCHEM_IUPAC_INCHI>
InChI=1S/C23H22N4O2/c24-22-21-20(13-27(23(21)26-14-25-22)16-8-9-17(28)12-16)15-6-10-19(11-7-15)29-18-4-2-1-3-5-18/h1-7,10-11,13-14,16-17,28H,8-9,12H2,(H2,24,25,26)

> <PUBCHEM_IUPAC_INCHIKEY>
UJWXPHLWGVGIBB-UHFFFAOYSA-N

> <PUBCHEM_XLOGP3_AA>
3.6

> <PUBCHEM_EXACT_MASS>
386.17427596

> <PUBCHEM_MOLECULAR_FORMULA>
C23H22N4O2

> <PUBCHEM_MOLECULAR_WEIGHT>
386.4

> <PUBCHEM_SMILES>
C1CC(CC1N2C=C(C3=C(N=CN=C32)N)C4=CC=C(C=C4)OC5=CC=CC=C5)O

> <PUBCHEM_OPENEYE_CAN_SMILES>
C1CC(CC1N2C=C(C3=C(N=CN=C32)N)C4=CC=C(C=C4)OC5=CC=CC=C5)O

> <PUBCHEM_OPENEYE_ISO_SMILES>
C1CC(CC1N2C=C(C3=C(N=CN=C32)N)C4=CC=C(C=C4)OC5=CC=CC=C5)O

> <PUBCHEM_CACTVS_TPSA>
86.2

> <PUBCHEM_MONOISOTOPIC_WEIGHT>
386.17427596

> <PUBCHEM_TOTAL_CHARGE>
0

> <PUBCHEM_HEAVY_ATOM_COUNT>
29

> <PUBCHEM_ATOM_DEF_STEREO_COUNT>
0

> <PUBCHEM_ATOM_UDEF_STEREO_COUNT>
2

> <PUBCHEM_BOND_DEF_STEREO_COUNT>
0

> <PUBCHEM_BOND_UDEF_STEREO_COUNT>
0

> <PUBCHEM_ISOTOPIC_ATOM_COUNT>
0

> <PUBCHEM_COMPONENT_COUNT>
1

> <PUBCHEM_CACTVS_TAUTO_COUNT>
-1

> <PUBCHEM_COORDINATE_TYPE>
1
5
255

> <PUBCHEM_BONDANNOTATIONS>
10  1  3
12  14  8
13  15  8
14  15  8
14  17  8
16  19  8
16  20  8
19  21  8
20  22  8
21  23  8
22  23  8
24  25  8
24  26  8
25  27  8
26  28  8
27  29  8
28  29  8
3  12  8
3  13  8
7  3  3
4  12  8
4  18  8
5  17  8
5  18  8

$$$$
