44460786
  -OEChem-03202505232D

 70 73  0     1  0  0  0  0  0999 V2000
    9.0991    2.3375    0.0000 O   0  0  0  0  0  0  0  0  0  0  0  0
    6.8671   -0.5285    0.0000 O   0  0  0  0  0  0  0  0  0  0  0  0
    8.5991   -1.5285    0.0000 O   0  0  0  0  0  0  0  0  0  0  0  0
   10.3312   -0.5285    0.0000 O   0  0  0  0  0  0  0  0  0  0  0  0
    7.0991    2.3375    0.0000 O   0  0  0  0  0  0  0  0  0  0  0  0
    8.5991    3.2035    0.0000 O   0  0  0  0  0  0  0  0  0  0  0  0
   10.5991    1.4715    0.0000 O   0  0  0  0  0  0  0  0  0  0  0  0
    6.0010    0.9715    0.0000 O   0  0  0  0  0  0  0  0  0  0  0  0
    6.8671   -1.5285    0.0000 O   0  0  0  0  0  0  0  0  0  0  0  0
   13.0991    4.0695    0.0000 O   0  0  0  0  0  0  0  0  0  0  0  0
   10.0991    5.8016    0.0000 O   0  0  0  0  0  0  0  0  0  0  0  0
    2.5369   -0.0285    0.0000 O   0  0  0  0  0  0  0  0  0  0  0  0
    4.2690   -3.0285    0.0000 O   0  0  0  0  0  0  0  0  0  0  0  0
    6.0010   -5.0285    0.0000 O   0  0  0  0  0  0  0  0  0  0  0  0
    9.4651   -5.0285    0.0000 O   0  0  0  0  0  0  0  0  0  0  0  0
   12.0991    5.8016    0.0000 O   0  0  0  0  0  0  0  0  0  0  0  0
    2.5369   -2.0285    0.0000 O   0  0  0  0  0  0  0  0  0  0  0  0
    7.7331   -6.0285    0.0000 O   0  0  0  0  0  0  0  0  0  0  0  0
    8.5991    1.4715    0.0000 C   0  0  1  0  0  0  0  0  0  0  0  0
    7.7331   -0.0285    0.0000 C   0  0  2  0  0  0  0  0  0  0  0  0
    7.7331    0.9715    0.0000 C   0  0  0  0  0  0  0  0  0  0  0  0
    8.5991   -0.5285    0.0000 C   0  0  2  0  0  0  0  0  0  0  0  0
    9.4651    0.9715    0.0000 C   0  0  0  0  0  0  0  0  0  0  0  0
    9.4651   -0.0285    0.0000 C   0  0  1  0  0  0  0  0  0  0  0  0
    8.0991    2.3375    0.0000 C   0  0  0  0  0  0  0  0  0  0  0  0
   10.0991    2.3375    0.0000 C   0  0  0  0  0  0  0  0  0  0  0  0
    6.0010   -0.0285    0.0000 C   0  0  0  0  0  0  0  0  0  0  0  0
    7.7331   -2.0285    0.0000 C   0  0  0  0  0  0  0  0  0  0  0  0
   10.5991    3.2035    0.0000 C   0  0  0  0  0  0  0  0  0  0  0  0
    5.1350   -0.5285    0.0000 C   0  0  0  0  0  0  0  0  0  0  0  0
    7.7331   -3.0285    0.0000 C   0  0  0  0  0  0  0  0  0  0  0  0
   10.0991    4.0695    0.0000 C   0  0  0  0  0  0  0  0  0  0  0  0
   11.5991    3.2035    0.0000 C   0  0  0  0  0  0  0  0  0  0  0  0
    5.1350   -1.5285    0.0000 C   0  0  0  0  0  0  0  0  0  0  0  0
    4.2690   -0.0285    0.0000 C   0  0  0  0  0  0  0  0  0  0  0  0
    8.5991   -3.5285    0.0000 C   0  0  0  0  0  0  0  0  0  0  0  0
    6.8671   -3.5285    0.0000 C   0  0  0  0  0  0  0  0  0  0  0  0
   12.0991    4.0695    0.0000 C   0  0  0  0  0  0  0  0  0  0  0  0
   10.5991    4.9356    0.0000 C   0  0  0  0  0  0  0  0  0  0  0  0
    3.4030   -0.5285    0.0000 C   0  0  0  0  0  0  0  0  0  0  0  0
    4.2690   -2.0285    0.0000 C   0  0  0  0  0  0  0  0  0  0  0  0
    6.8671   -4.5285    0.0000 C   0  0  0  0  0  0  0  0  0  0  0  0
    8.5991   -4.5285    0.0000 C   0  0  0  0  0  0  0  0  0  0  0  0
   11.5991    4.9356    0.0000 C   0  0  0  0  0  0  0  0  0  0  0  0
    3.4030   -1.5285    0.0000 C   0  0  0  0  0  0  0  0  0  0  0  0
    7.7331   -5.0285    0.0000 C   0  0  0  0  0  0  0  0  0  0  0  0
    7.1962    0.2815    0.0000 H   0  0  0  0  0  0  0  0  0  0  0  0
    7.5210    1.5541    0.0000 H   0  0  0  0  0  0  0  0  0  0  0  0
    7.1225    0.8638    0.0000 H   0  0  0  0  0  0  0  0  0  0  0  0
    8.0622   -0.8385    0.0000 H   0  0  0  0  0  0  0  0  0  0  0  0
   10.0757    0.8638    0.0000 H   0  0  0  0  0  0  0  0  0  0  0  0
    9.6772    1.5541    0.0000 H   0  0  0  0  0  0  0  0  0  0  0  0
   10.0021    0.2815    0.0000 H   0  0  0  0  0  0  0  0  0  0  0  0
   10.8681   -0.2185    0.0000 H   0  0  0  0  0  0  0  0  0  0  0  0
    6.7891    2.8744    0.0000 H   0  0  0  0  0  0  0  0  0  0  0  0
    9.4791    4.0695    0.0000 H   0  0  0  0  0  0  0  0  0  0  0  0
   11.9091    2.6666    0.0000 H   0  0  0  0  0  0  0  0  0  0  0  0
    5.6720   -1.8385    0.0000 H   0  0  0  0  0  0  0  0  0  0  0  0
    4.2690    0.5915    0.0000 H   0  0  0  0  0  0  0  0  0  0  0  0
    9.1360   -3.2185    0.0000 H   0  0  0  0  0  0  0  0  0  0  0  0
    6.3301   -3.2185    0.0000 H   0  0  0  0  0  0  0  0  0  0  0  0
   13.4091    3.5326    0.0000 H   0  0  0  0  0  0  0  0  0  0  0  0
   10.4091    6.3385    0.0000 H   0  0  0  0  0  0  0  0  0  0  0  0
    2.5369    0.5915    0.0000 H   0  0  0  0  0  0  0  0  0  0  0  0
    3.7320   -3.3385    0.0000 H   0  0  0  0  0  0  0  0  0  0  0  0
    6.0010   -5.6485    0.0000 H   0  0  0  0  0  0  0  0  0  0  0  0
   10.0021   -4.7185    0.0000 H   0  0  0  0  0  0  0  0  0  0  0  0
   12.7191    5.8016    0.0000 H   0  0  0  0  0  0  0  0  0  0  0  0
    2.0000   -1.7185    0.0000 H   0  0  0  0  0  0  0  0  0  0  0  0
    8.2700   -6.3385    0.0000 H   0  0  0  0  0  0  0  0  0  0  0  0
 19  1  1  6  0  0  0
  1 26  1  0  0  0  0
 20  2  1  6  0  0  0
  2 27  1  0  0  0  0
 22  3  1  6  0  0  0
  3 28  1  0  0  0  0
 24  4  1  1  0  0  0
  4 54  1  0  0  0  0
  5 25  1  0  0  0  0
  5 55  1  0  0  0  0
  6 25  2  0  0  0  0
  7 26  2  0  0  0  0
  8 27  2  0  0  0  0
  9 28  2  0  0  0  0
 10 38  1  0  0  0  0
 10 62  1  0  0  0  0
 11 39  1  0  0  0  0
 11 63  1  0  0  0  0
 12 40  1  0  0  0  0
 12 64  1  0  0  0  0
 13 41  1  0  0  0  0
 13 65  1  0  0  0  0
 14 42  1  0  0  0  0
 14 66  1  0  0  0  0
 15 43  1  0  0  0  0
 15 67  1  0  0  0  0
 16 44  1  0  0  0  0
 16 68  1  0  0  0  0
 17 45  1  0  0  0  0
 17 69  1  0  0  0  0
 18 46  1  0  0  0  0
 18 70  1  0  0  0  0
 19 21  1  0  0  0  0
 19 23  1  0  0  0  0
 19 25  1  0  0  0  0
 20 21  1  0  0  0  0
 20 22  1  0  0  0  0
 20 47  1  0  0  0  0
 21 48  1  0  0  0  0
 21 49  1  0  0  0  0
 22 24  1  0  0  0  0
 22 50  1  0  0  0  0
 23 24  1  0  0  0  0
 23 51  1  0  0  0  0
 23 52  1  0  0  0  0
 24 53  1  0  0  0  0
 26 29  1  0  0  0  0
 27 30  1  0  0  0  0
 28 31  1  0  0  0  0
 29 32  2  0  0  0  0
 29 33  1  0  0  0  0
 30 34  2  0  0  0  0
 30 35  1  0  0  0  0
 31 36  2  0  0  0  0
 31 37  1  0  0  0  0
 32 39  1  0  0  0  0
 32 56  1  0  0  0  0
 33 38  2  0  0  0  0
 33 57  1  0  0  0  0
 34 41  1  0  0  0  0
 34 58  1  0  0  0  0
 35 40  2  0  0  0  0
 35 59  1  0  0  0  0
 36 43  1  0  0  0  0
 36 60  1  0  0  0  0
 37 42  2  0  0  0  0
 37 61  1  0  0  0  0
 38 44  1  0  0  0  0
 39 44  2  0  0  0  0
 40 45  1  0  0  0  0
 41 45  2  0  0  0  0
 42 46  1  0  0  0  0
 43 46  2  0  0  0  0
M  END
> <PUBCHEM_COMPOUND_CID>
44460786

> <PUBCHEM_COMPOUND_CANONICALIZED>
1

> <PUBCHEM_CACTVS_COMPLEXITY>
1100

> <PUBCHEM_CACTVS_HBOND_ACCEPTOR>
18

> <PUBCHEM_CACTVS_HBOND_DONOR>
11

> <PUBCHEM_CACTVS_ROTATABLE_BOND>
10

> <PUBCHEM_CACTVS_SUBSKEYS>
AAADceB4PgAAAAAAAAAAAAAAAAAAAAAAAAAwYMGAAAAAAAABUAAAGgAACAAADFSgmAIwDoAABgCIAiDSCAICAAAkIAAAiAFGiMgJNzKCNR6CcQElwBULuYfK7DzOIAABCAAAQABCAAIQAACAAAAAAAAAAA==

> <PUBCHEM_IUPAC_OPENEYE_NAME>
(1R,3R,4S,5R)-3-hydroxy-1,4,5-tris[(3,4,5-trihydroxybenzoyl)oxy]cyclohexanecarboxylic acid

> <PUBCHEM_IUPAC_CAS_NAME>
(1R,3R,4S,5R)-3-hydroxy-1,4,5-tris[oxo-(3,4,5-trihydroxyphenyl)methoxy]-1-cyclohexanecarboxylic acid

> <PUBCHEM_IUPAC_NAME_MARKUP>
(1<I>R</I>,3<I>R</I>,4<I>S</I>,5<I>R</I>)-3-hydroxy-1,4,5-tris[(3,4,5-trihydroxybenzoyl)oxy]cyclohexane-1-carboxylic acid

> <PUBCHEM_IUPAC_NAME>
(1R,3R,4S,5R)-3-hydroxy-1,4,5-tris[(3,4,5-trihydroxybenzoyl)oxy]cyclohexane-1-carboxylic acid

> <PUBCHEM_IUPAC_SYSTEMATIC_NAME>
(1R,3R,4S,5R)-3-oxidanyl-1,4,5-tris[[3,4,5-tris(oxidanyl)phenyl]carbonyloxy]cyclohexane-1-carboxylic acid

> <PUBCHEM_IUPAC_TRADITIONAL_NAME>
(1R,3R,4S,5R)-1,3,4-trigalloyloxy-5-hydroxy-cyclohexanecarboxylic acid

> <PUBCHEM_IUPAC_INCHI>
InChI=1S/C28H24O18/c29-12-1-9(2-13(30)20(12)36)24(39)44-19-8-28(27(42)43,46-26(41)11-5-16(33)22(38)17(34)6-11)7-18(35)23(19)45-25(40)10-3-14(31)21(37)15(32)4-10/h1-6,18-19,23,29-38H,7-8H2,(H,42,43)/t18-,19-,23+,28-/m1/s1

> <PUBCHEM_IUPAC_INCHIKEY>
MFFWGSMFANTCDY-UVLHBTOWSA-N

> <PUBCHEM_XLOGP3_AA>
1.1

> <PUBCHEM_EXACT_MASS>
648.09626391

> <PUBCHEM_MOLECULAR_FORMULA>
C28H24O18

> <PUBCHEM_MOLECULAR_WEIGHT>
648.5

> <PUBCHEM_SMILES>
C1[C@H]([C@@H]([C@@H](C[C@]1(C(=O)O)OC(=O)C2=CC(=C(C(=C2)O)O)O)OC(=O)C3=CC(=C(C(=C3)O)O)O)OC(=O)C4=CC(=C(C(=C4)O)O)O)O

> <PUBCHEM_OPENEYE_CAN_SMILES>
C1C(C(C(CC1(C(=O)O)OC(=O)C2=CC(=C(C(=C2)O)O)O)OC(=O)C3=CC(=C(C(=C3)O)O)O)OC(=O)C4=CC(=C(C(=C4)O)O)O)O

> <PUBCHEM_OPENEYE_ISO_SMILES>
C1[C@H]([C@@H]([C@@H](C[C@]1(C(=O)O)OC(=O)C2=CC(=C(C(=C2)O)O)O)OC(=O)C3=CC(=C(C(=C3)O)O)O)OC(=O)C4=CC(=C(C(=C4)O)O)O)O

> <PUBCHEM_CACTVS_TPSA>
319

> <PUBCHEM_MONOISOTOPIC_WEIGHT>
648.09626391

> <PUBCHEM_TOTAL_CHARGE>
0

> <PUBCHEM_HEAVY_ATOM_COUNT>
46

> <PUBCHEM_ATOM_DEF_STEREO_COUNT>
4

> <PUBCHEM_ATOM_UDEF_STEREO_COUNT>
0

> <PUBCHEM_BOND_DEF_STEREO_COUNT>
0

> <PUBCHEM_BOND_UDEF_STEREO_COUNT>
0

> <PUBCHEM_ISOTOPIC_ATOM_COUNT>
0

> <PUBCHEM_COMPONENT_COUNT>
1

> <PUBCHEM_CACTVS_TAUTO_COUNT>
-1

> <PUBCHEM_COORDINATE_TYPE>
1
5
255

> <PUBCHEM_BONDANNOTATIONS>
19  1  6
20  2  6
29  32  8
29  33  8
22  3  6
30  34  8
30  35  8
31  36  8
31  37  8
32  39  8
33  38  8
34  41  8
35  40  8
36  43  8
37  42  8
38  44  8
39  44  8
24  4  5
40  45  8
41  45  8
42  46  8
43  46  8

$$$$
