1268887
  -OEChem-03202503572D

 23 25  0     0  0  0  0  0  0999 V2000
    2.0000   -0.6624    0.0000 Br  0  0  0  0  0  0  0  0  0  0  0  0
    5.2686    0.9028    0.0000 S   0  0  0  0  0  0  0  0  0  0  0  0
    5.5504    2.6624    0.0000 S   0  0  0  0  0  0  0  0  0  0  0  0
    7.6146   -0.1890    0.0000 O   0  0  0  0  0  0  0  0  0  0  0  0
    7.1279   -1.6624    0.0000 O   0  0  0  0  0  0  0  0  0  0  0  0
    5.5443   -2.4672    0.0000 N   0  0  0  0  0  0  0  0  0  0  0  0
    6.8083    1.4002    0.0000 N   0  0  0  0  0  0  0  0  0  0  0  0
    5.5443   -0.8577    0.0000 C   0  0  0  0  0  0  0  0  0  0  0  0
    4.5981   -1.1624    0.0000 C   0  0  0  0  0  0  0  0  0  0  0  0
    4.5981   -2.1624    0.0000 C   0  0  0  0  0  0  0  0  0  0  0  0
    5.8550    0.0928    0.0000 C   0  0  0  0  0  0  0  0  0  0  0  0
    6.1279   -1.6624    0.0000 C   0  0  0  0  0  0  0  0  0  0  0  0
    3.7320   -0.6624    0.0000 C   0  0  0  0  0  0  0  0  0  0  0  0
    6.8066    0.4002    0.0000 C   0  0  0  0  0  0  0  0  0  0  0  0
    3.7320   -2.6624    0.0000 C   0  0  0  0  0  0  0  0  0  0  0  0
    2.8660   -1.1624    0.0000 C   0  0  0  0  0  0  0  0  0  0  0  0
    2.8660   -2.1624    0.0000 C   0  0  0  0  0  0  0  0  0  0  0  0
    5.8578    1.7108    0.0000 C   0  0  0  0  0  0  0  0  0  0  0  0
    3.7320   -0.0424    0.0000 H   0  0  0  0  0  0  0  0  0  0  0  0
    3.7320   -3.2824    0.0000 H   0  0  0  0  0  0  0  0  0  0  0  0
    7.3105    1.7637    0.0000 H   0  0  0  0  0  0  0  0  0  0  0  0
    2.3291   -2.4724    0.0000 H   0  0  0  0  0  0  0  0  0  0  0  0
    8.1814    0.0622    0.0000 H   0  0  0  0  0  0  0  0  0  0  0  0
  1 16  1  0  0  0  0
  2 11  1  0  0  0  0
  2 18  1  0  0  0  0
  3 18  2  0  0  0  0
  4 14  1  0  0  0  0
  4 23  1  0  0  0  0
  5 12  2  0  0  0  0
  6 10  2  0  0  0  0
  6 12  1  0  0  0  0
  7 14  1  0  0  0  0
  7 18  1  0  0  0  0
  7 21  1  0  0  0  0
  8  9  2  0  0  0  0
  8 11  1  0  0  0  0
  8 12  1  0  0  0  0
  9 10  1  0  0  0  0
  9 13  1  0  0  0  0
 10 15  1  0  0  0  0
 11 14  2  0  0  0  0
 13 16  2  0  0  0  0
 13 19  1  0  0  0  0
 15 17  2  0  0  0  0
 15 20  1  0  0  0  0
 16 17  1  0  0  0  0
 17 22  1  0  0  0  0
M  END
> <PUBCHEM_COMPOUND_CID>
1268887

> <PUBCHEM_COMPOUND_CANONICALIZED>
1

> <PUBCHEM_CACTVS_COMPLEXITY>
656

> <PUBCHEM_CACTVS_HBOND_ACCEPTOR>
4

> <PUBCHEM_CACTVS_HBOND_DONOR>
2

> <PUBCHEM_CACTVS_ROTATABLE_BOND>
1

> <PUBCHEM_CACTVS_SUBSKEYS>
AAADcYBzMABgEAAAAAAAAAAAAAAAAQIAAAAgAAAAAAAAAEAAAAAAHgRQCAABjAiBwAAAAALAAgisAyFyVACAAABgIBkICAEwAFkIAAAgAQAAAAAAgAAIgQIAAAAAAAAAAAAAAAAAAAAAAAAAAAAAAAAAAA==

> <PUBCHEM_IUPAC_OPENEYE_NAME>
5-bromo-3-(4-hydroxy-2-thioxo-3H-thiazol-5-yl)indol-2-one

> <PUBCHEM_IUPAC_CAS_NAME>
5-bromo-3-(4-hydroxy-2-sulfanylidene-3H-thiazol-5-yl)-2-indolone

> <PUBCHEM_IUPAC_NAME_MARKUP>
5-bromo-3-(4-hydroxy-2-sulfanylidene-3<I>H</I>-1,3-thiazol-5-yl)indol-2-one

> <PUBCHEM_IUPAC_NAME>
5-bromo-3-(4-hydroxy-2-sulfanylidene-3H-1,3-thiazol-5-yl)indol-2-one

> <PUBCHEM_IUPAC_SYSTEMATIC_NAME>
5-bromanyl-3-(4-oxidanyl-2-sulfanylidene-3H-1,3-thiazol-5-yl)indol-2-one

> <PUBCHEM_IUPAC_TRADITIONAL_NAME>
5-bromo-3-(4-hydroxy-2-thioxo-4-thiazolin-5-yl)indol-2-one

> <PUBCHEM_IUPAC_INCHI>
InChI=1S/C11H5BrN2O2S2/c12-4-1-2-6-5(3-4)7(9(15)13-6)8-10(16)14-11(17)18-8/h1-3,16H,(H,14,17)

> <PUBCHEM_IUPAC_INCHIKEY>
IICOBSWVOCCABZ-UHFFFAOYSA-N

> <PUBCHEM_XLOGP3_AA>
1.8

> <PUBCHEM_EXACT_MASS>
339.89758

> <PUBCHEM_MOLECULAR_FORMULA>
C11H5BrN2O2S2

> <PUBCHEM_MOLECULAR_WEIGHT>
341.2

> <PUBCHEM_SMILES>
C1=CC2=NC(=O)C(=C2C=C1Br)C3=C(NC(=S)S3)O

> <PUBCHEM_OPENEYE_CAN_SMILES>
C1=CC2=NC(=O)C(=C2C=C1Br)C3=C(NC(=S)S3)O

> <PUBCHEM_OPENEYE_ISO_SMILES>
C1=CC2=NC(=O)C(=C2C=C1Br)C3=C(NC(=S)S3)O

> <PUBCHEM_CACTVS_TPSA>
119

> <PUBCHEM_MONOISOTOPIC_WEIGHT>
339.89758

> <PUBCHEM_TOTAL_CHARGE>
0

> <PUBCHEM_HEAVY_ATOM_COUNT>
18

> <PUBCHEM_ATOM_DEF_STEREO_COUNT>
0

> <PUBCHEM_ATOM_UDEF_STEREO_COUNT>
0

> <PUBCHEM_BOND_DEF_STEREO_COUNT>
0

> <PUBCHEM_BOND_UDEF_STEREO_COUNT>
0

> <PUBCHEM_ISOTOPIC_ATOM_COUNT>
0

> <PUBCHEM_COMPONENT_COUNT>
1

> <PUBCHEM_CACTVS_TAUTO_COUNT>
-1

> <PUBCHEM_COORDINATE_TYPE>
1
5
255

> <PUBCHEM_BONDANNOTATIONS>
10  15  8
11  14  8
13  16  8
15  17  8
16  17  8
2  11  8
2  18  8
7  14  8
7  18  8
9  10  8
9  13  8

$$$$
