49831028
  -OEChem-03202503102D

 13 14  0     0  0  0  0  0  0999 V2000
    6.6887   -0.7059    0.0000 Cl  0  0  0  0  0  0  0  0  0  0  0  0
    5.1051    0.0988    0.0000 S   0  0  0  0  0  0  0  0  0  0  0  0
    2.6200   -0.7059    0.0000 N   0  0  0  0  0  0  0  0  0  0  0  0
    3.2078   -1.5149    0.0000 N   0  0  0  0  0  0  0  0  0  0  0  0
    5.1051   -1.5106    0.0000 N   0  0  0  0  0  0  0  0  0  0  0  0
    2.8988    1.0542    0.0000 N   0  0  0  0  0  0  0  0  0  0  0  0
    4.1588   -0.2059    0.0000 C   0  0  0  0  0  0  0  0  0  0  0  0
    3.2078    0.1031    0.0000 C   0  0  0  0  0  0  0  0  0  0  0  0
    4.1588   -1.2059    0.0000 C   0  0  0  0  0  0  0  0  0  0  0  0
    5.6887   -0.7059    0.0000 C   0  0  0  0  0  0  0  0  0  0  0  0
    2.0000   -0.7059    0.0000 H   0  0  0  0  0  0  0  0  0  0  0  0
    2.2923    1.1831    0.0000 H   0  0  0  0  0  0  0  0  0  0  0  0
    3.3136    1.5149    0.0000 H   0  0  0  0  0  0  0  0  0  0  0  0
  1 10  1  0  0  0  0
  2  7  1  0  0  0  0
  2 10  1  0  0  0  0
  3  4  1  0  0  0  0
  3  8  1  0  0  0  0
  3 11  1  0  0  0  0
  4  9  2  0  0  0  0
  5  9  1  0  0  0  0
  5 10  2  0  0  0  0
  6  8  1  0  0  0  0
  6 12  1  0  0  0  0
  6 13  1  0  0  0  0
  7  8  2  0  0  0  0
  7  9  1  0  0  0  0
M  END
> <PUBCHEM_COMPOUND_CID>
49831028

> <PUBCHEM_COMPOUND_CANONICALIZED>
1

> <PUBCHEM_CACTVS_COMPLEXITY>
145

> <PUBCHEM_CACTVS_HBOND_ACCEPTOR>
4

> <PUBCHEM_CACTVS_HBOND_DONOR>
2

> <PUBCHEM_CACTVS_ROTATABLE_BOND>
0

> <PUBCHEM_CACTVS_SUBSKEYS>
AAADcQBjgABEAAAAAAAAAAAAAAAAAWLAAAAAAAAAAAAWAAAB+AAADAYYAAAACAABUwABsZ5rEAimAAJgZACQ9KvBCLgVMSQgRBCACABAQEAEhAgQCABAAAAAAAAAAAAAAAAAAAAAAAAAAAAAAAAAAAAAAA==

> <PUBCHEM_IUPAC_OPENEYE_NAME>
5-chloro-2H-pyrazolo[3,4-d]thiazol-3-amine

> <PUBCHEM_IUPAC_CAS_NAME>
5-chloro-2H-pyrazolo[3,4-d]thiazol-3-amine

> <PUBCHEM_IUPAC_NAME_MARKUP>
5-chloro-2<I>H</I>-pyrazolo[3,4-d][1,3]thiazol-3-amine

> <PUBCHEM_IUPAC_NAME>
5-chloro-2H-pyrazolo[3,4-d][1,3]thiazol-3-amine

> <PUBCHEM_IUPAC_SYSTEMATIC_NAME>
5-chloranyl-2H-pyrazolo[3,4-d][1,3]thiazol-3-amine

> <PUBCHEM_IUPAC_TRADITIONAL_NAME>
(5-chloro-2H-pyrazolo[3,4-d]thiazol-3-yl)amine

> <PUBCHEM_IUPAC_INCHI>
InChI=1S/C4H3ClN4S/c5-4-7-3-1(10-4)2(6)8-9-3/h(H3,6,8,9)

> <PUBCHEM_IUPAC_INCHIKEY>
RTPBWIGTGGLQHJ-UHFFFAOYSA-N

> <PUBCHEM_XLOGP3_AA>
1.6

> <PUBCHEM_EXACT_MASS>
173.9766950

> <PUBCHEM_MOLECULAR_FORMULA>
C4H3ClN4S

> <PUBCHEM_MOLECULAR_WEIGHT>
174.61

> <PUBCHEM_SMILES>
C12=C(NN=C1N=C(S2)Cl)N

> <PUBCHEM_OPENEYE_CAN_SMILES>
C12=C(NN=C1N=C(S2)Cl)N

> <PUBCHEM_OPENEYE_ISO_SMILES>
C12=C(NN=C1N=C(S2)Cl)N

> <PUBCHEM_CACTVS_TPSA>
95.8

> <PUBCHEM_MONOISOTOPIC_WEIGHT>
173.9766950

> <PUBCHEM_TOTAL_CHARGE>
0

> <PUBCHEM_HEAVY_ATOM_COUNT>
10

> <PUBCHEM_ATOM_DEF_STEREO_COUNT>
0

> <PUBCHEM_ATOM_UDEF_STEREO_COUNT>
0

> <PUBCHEM_BOND_DEF_STEREO_COUNT>
0

> <PUBCHEM_BOND_UDEF_STEREO_COUNT>
0

> <PUBCHEM_ISOTOPIC_ATOM_COUNT>
0

> <PUBCHEM_COMPONENT_COUNT>
1

> <PUBCHEM_CACTVS_TAUTO_COUNT>
-1

> <PUBCHEM_COORDINATE_TYPE>
1
5
255

> <PUBCHEM_BONDANNOTATIONS>
2  10  8
2  7  8
3  4  8
3  8  8
4  9  8
5  10  8
5  9  8
7  8  8
7  9  8

$$$$
