49830959
  -OEChem-03202501182D

 33 35  0     0  0  0  0  0  0999 V2000
    7.7331   -2.1900    0.0000 O   0  0  0  0  0  0  0  0  0  0  0  0
    8.6270   -0.7247    0.0000 N   0  0  0  0  0  0  0  0  0  0  0  0
    2.5369    0.8100    0.0000 N   0  0  0  0  0  0  0  0  0  0  0  0
    6.0010   -2.1900    0.0000 N   0  0  0  0  0  0  0  0  0  0  0  0
    6.0010    0.8100    0.0000 C   0  0  0  0  0  0  0  0  0  0  0  0
    7.7331    0.8100    0.0000 C   0  0  0  0  0  0  0  0  0  0  0  0
    7.7331   -0.1900    0.0000 C   0  0  0  0  0  0  0  0  0  0  0  0
    6.8671   -0.6900    0.0000 C   0  0  0  0  0  0  0  0  0  0  0  0
    5.1350    1.3100    0.0000 C   0  0  0  0  0  0  0  0  0  0  0  0
    6.8671    1.3100    0.0000 C   0  0  0  0  0  0  0  0  0  0  0  0
    6.0010   -0.1900    0.0000 C   0  0  0  0  0  0  0  0  0  0  0  0
    8.6270    1.3447    0.0000 C   0  0  0  0  0  0  0  0  0  0  0  0
    4.2690    0.8100    0.0000 C   0  0  0  0  0  0  0  0  0  0  0  0
    5.1350    2.3100    0.0000 C   0  0  0  0  0  0  0  0  0  0  0  0
    3.4030    1.3100    0.0000 C   0  0  0  0  0  0  0  0  0  0  0  0
    6.8671   -1.6900    0.0000 C   0  0  0  0  0  0  0  0  0  0  0  0
    9.5331    0.8308    0.0000 C   0  0  0  0  0  0  0  0  0  0  0  0
    4.2690    2.8100    0.0000 C   0  0  0  0  0  0  0  0  0  0  0  0
    3.4030    2.3100    0.0000 C   0  0  0  0  0  0  0  0  0  0  0  0
    9.5331   -0.2108    0.0000 C   0  0  0  0  0  0  0  0  0  0  0  0
    6.8671    1.9300    0.0000 H   0  0  0  0  0  0  0  0  0  0  0  0
    5.4641   -0.5000    0.0000 H   0  0  0  0  0  0  0  0  0  0  0  0
    8.6199    1.9646    0.0000 H   0  0  0  0  0  0  0  0  0  0  0  0
    4.2690    0.1900    0.0000 H   0  0  0  0  0  0  0  0  0  0  0  0
    5.6720    2.6200    0.0000 H   0  0  0  0  0  0  0  0  0  0  0  0
   10.0688    1.1429    0.0000 H   0  0  0  0  0  0  0  0  0  0  0  0
    4.2690    3.4300    0.0000 H   0  0  0  0  0  0  0  0  0  0  0  0
    2.8660    2.6200    0.0000 H   0  0  0  0  0  0  0  0  0  0  0  0
   10.0688   -0.5229    0.0000 H   0  0  0  0  0  0  0  0  0  0  0  0
    2.0000    1.1200    0.0000 H   0  0  0  0  0  0  0  0  0  0  0  0
    2.5369    0.1900    0.0000 H   0  0  0  0  0  0  0  0  0  0  0  0
    6.0010   -2.8100    0.0000 H   0  0  0  0  0  0  0  0  0  0  0  0
    5.4641   -1.8800    0.0000 H   0  0  0  0  0  0  0  0  0  0  0  0
  1 16  2  0  0  0  0
  2  7  1  0  0  0  0
  2 20  2  0  0  0  0
  3 15  1  0  0  0  0
  3 30  1  0  0  0  0
  3 31  1  0  0  0  0
  4 16  1  0  0  0  0
  4 32  1  0  0  0  0
  4 33  1  0  0  0  0
  5  9  1  0  0  0  0
  5 10  1  0  0  0  0
  5 11  2  0  0  0  0
  6  7  1  0  0  0  0
  6 10  2  0  0  0  0
  6 12  1  0  0  0  0
  7  8  2  0  0  0  0
  8 11  1  0  0  0  0
  8 16  1  0  0  0  0
  9 13  2  0  0  0  0
  9 14  1  0  0  0  0
 10 21  1  0  0  0  0
 11 22  1  0  0  0  0
 12 17  2  0  0  0  0
 12 23  1  0  0  0  0
 13 15  1  0  0  0  0
 13 24  1  0  0  0  0
 14 18  2  0  0  0  0
 14 25  1  0  0  0  0
 15 19  2  0  0  0  0
 17 20  1  0  0  0  0
 17 26  1  0  0  0  0
 18 19  1  0  0  0  0
 18 27  1  0  0  0  0
 19 28  1  0  0  0  0
 20 29  1  0  0  0  0
M  END
> <PUBCHEM_COMPOUND_CID>
49830959

> <PUBCHEM_COMPOUND_CANONICALIZED>
1

> <PUBCHEM_CACTVS_COMPLEXITY>
360

> <PUBCHEM_CACTVS_HBOND_ACCEPTOR>
3

> <PUBCHEM_CACTVS_HBOND_DONOR>
2

> <PUBCHEM_CACTVS_ROTATABLE_BOND>
2

> <PUBCHEM_CACTVS_SUBSKEYS>
AAADccB7IAAAAAAAAAAAAAAAAAAAAAAAAAA8YIAAAAAAAACx9AAAHgAQAAAADAjBngQ8wPJIEACoAzV3VACCgCA1AiAI2CE4ZNgIIPrA1ZGEIYhgkADIyccYiMCOiAACQAACAAAQAASAAAQAAAAAAAAAAA==

> <PUBCHEM_IUPAC_OPENEYE_NAME>
6-(3-aminophenyl)quinoline-8-carboxamide

> <PUBCHEM_IUPAC_CAS_NAME>
6-(3-aminophenyl)-8-quinolinecarboxamide

> <PUBCHEM_IUPAC_NAME_MARKUP>
6-(3-aminophenyl)quinoline-8-carboxamide

> <PUBCHEM_IUPAC_NAME>
6-(3-aminophenyl)quinoline-8-carboxamide

> <PUBCHEM_IUPAC_SYSTEMATIC_NAME>
6-(3-aminophenyl)quinoline-8-carboxamide

> <PUBCHEM_IUPAC_TRADITIONAL_NAME>
6-(3-aminophenyl)quinoline-8-carboxamide

> <PUBCHEM_IUPAC_INCHI>
InChI=1S/C16H13N3O/c17-13-5-1-3-10(8-13)12-7-11-4-2-6-19-15(11)14(9-12)16(18)20/h1-9H,17H2,(H2,18,20)

> <PUBCHEM_IUPAC_INCHIKEY>
CWBWMDSAVFJNAD-UHFFFAOYSA-N

> <PUBCHEM_XLOGP3_AA>
2

> <PUBCHEM_EXACT_MASS>
263.105862047

> <PUBCHEM_MOLECULAR_FORMULA>
C16H13N3O

> <PUBCHEM_MOLECULAR_WEIGHT>
263.29

> <PUBCHEM_SMILES>
C1=CC(=CC(=C1)N)C2=CC(=C3C(=C2)C=CC=N3)C(=O)N

> <PUBCHEM_OPENEYE_CAN_SMILES>
C1=CC(=CC(=C1)N)C2=CC(=C3C(=C2)C=CC=N3)C(=O)N

> <PUBCHEM_OPENEYE_ISO_SMILES>
C1=CC(=CC(=C1)N)C2=CC(=C3C(=C2)C=CC=N3)C(=O)N

> <PUBCHEM_CACTVS_TPSA>
82

> <PUBCHEM_MONOISOTOPIC_WEIGHT>
263.105862047

> <PUBCHEM_TOTAL_CHARGE>
0

> <PUBCHEM_HEAVY_ATOM_COUNT>
20

> <PUBCHEM_ATOM_DEF_STEREO_COUNT>
0

> <PUBCHEM_ATOM_UDEF_STEREO_COUNT>
0

> <PUBCHEM_BOND_DEF_STEREO_COUNT>
0

> <PUBCHEM_BOND_UDEF_STEREO_COUNT>
0

> <PUBCHEM_ISOTOPIC_ATOM_COUNT>
0

> <PUBCHEM_COMPONENT_COUNT>
1

> <PUBCHEM_CACTVS_TAUTO_COUNT>
-1

> <PUBCHEM_COORDINATE_TYPE>
1
5
255

> <PUBCHEM_BONDANNOTATIONS>
12  17  8
13  15  8
14  18  8
15  19  8
17  20  8
18  19  8
2  20  8
2  7  8
5  10  8
5  11  8
6  10  8
6  12  8
6  7  8
7  8  8
8  11  8
9  13  8
9  14  8

$$$$
