24905303
  -OEChem-03192523442D

 44 47  0     0  0  0  0  0  0999 V2000
    5.9209    3.8625    0.0000 Cl  0  0  0  0  0  0  0  0  0  0  0  0
    7.2566    2.3739    0.0000 O   0  0  0  0  0  0  0  0  0  0  0  0
    7.9244   -3.1182    0.0000 N   0  0  0  0  0  0  0  0  0  0  0  0
    4.6783   -1.5490    0.0000 N   0  0  0  0  0  0  0  0  0  0  0  0
    5.2619   -0.7443    0.0000 N   0  0  0  0  0  0  0  0  0  0  0  0
    2.8660   -1.7443    0.0000 N   0  0  0  0  0  0  0  0  0  0  0  0
    2.0000   -0.2443    0.0000 N   0  0  0  0  0  0  0  0  0  0  0  0
    2.8660    1.2557    0.0000 N   0  0  0  0  0  0  0  0  0  0  0  0
    5.9674   -2.7058    0.0000 C   0  0  0  0  0  0  0  0  0  0  0  0
    6.6353   -1.9615    0.0000 C   0  0  0  0  0  0  0  0  0  0  0  0
    6.2781   -3.6563    0.0000 C   0  0  0  0  0  0  0  0  0  0  0  0
    4.9889   -2.4996    0.0000 C   0  0  0  0  0  0  0  0  0  0  0  0
    7.6138   -2.1677    0.0000 C   0  0  0  0  0  0  0  0  0  0  0  0
    7.2566   -3.8625    0.0000 C   0  0  0  0  0  0  0  0  0  0  0  0
    3.7320   -1.2443    0.0000 C   0  0  0  0  0  0  0  0  0  0  0  0
    3.7320   -0.2443    0.0000 C   0  0  0  0  0  0  0  0  0  0  0  0
    4.6783    0.0604    0.0000 C   0  0  0  0  0  0  0  0  0  0  0  0
    4.9889    1.0110    0.0000 C   0  0  0  0  0  0  0  0  0  0  0  0
    2.8660    0.2557    0.0000 C   0  0  0  0  0  0  0  0  0  0  0  0
    2.0000   -1.2443    0.0000 C   0  0  0  0  0  0  0  0  0  0  0  0
    5.9674    1.2172    0.0000 C   0  0  0  0  0  0  0  0  0  0  0  0
    4.3211    1.7552    0.0000 C   0  0  0  0  0  0  0  0  0  0  0  0
    6.2781    2.1677    0.0000 C   0  0  0  0  0  0  0  0  0  0  0  0
    4.6318    2.7058    0.0000 C   0  0  0  0  0  0  0  0  0  0  0  0
    5.6103    2.9120    0.0000 C   0  0  0  0  0  0  0  0  0  0  0  0
    5.5534   -3.1672    0.0000 H   0  0  0  0  0  0  0  0  0  0  0  0
    6.8665   -1.3862    0.0000 H   0  0  0  0  0  0  0  0  0  0  0  0
    6.1089   -1.6338    0.0000 H   0  0  0  0  0  0  0  0  0  0  0  0
    5.6643   -3.7436    0.0000 H   0  0  0  0  0  0  0  0  0  0  0  0
    6.2575   -4.2760    0.0000 H   0  0  0  0  0  0  0  0  0  0  0  0
    4.3751   -2.5869    0.0000 H   0  0  0  0  0  0  0  0  0  0  0  0
    4.9684   -3.1192    0.0000 H   0  0  0  0  0  0  0  0  0  0  0  0
    8.2276   -2.0803    0.0000 H   0  0  0  0  0  0  0  0  0  0  0  0
    7.6344   -1.5480    0.0000 H   0  0  0  0  0  0  0  0  0  0  0  0
    7.0254   -4.4378    0.0000 H   0  0  0  0  0  0  0  0  0  0  0  0
    7.7830   -4.1902    0.0000 H   0  0  0  0  0  0  0  0  0  0  0  0
    8.5311   -3.2461    0.0000 H   0  0  0  0  0  0  0  0  0  0  0  0
    1.4631   -1.5543    0.0000 H   0  0  0  0  0  0  0  0  0  0  0  0
    6.3815    0.7557    0.0000 H   0  0  0  0  0  0  0  0  0  0  0  0
    3.7144    1.6274    0.0000 H   0  0  0  0  0  0  0  0  0  0  0  0
    2.3291    1.5657    0.0000 H   0  0  0  0  0  0  0  0  0  0  0  0
    3.4030    1.5657    0.0000 H   0  0  0  0  0  0  0  0  0  0  0  0
    4.2177    3.1672    0.0000 H   0  0  0  0  0  0  0  0  0  0  0  0
    7.4492    2.9632    0.0000 H   0  0  0  0  0  0  0  0  0  0  0  0
  1 25  1  0  0  0  0
  2 23  1  0  0  0  0
  2 44  1  0  0  0  0
  3 13  1  0  0  0  0
  3 14  1  0  0  0  0
  3 37  1  0  0  0  0
  4  5  1  0  0  0  0
  4 12  1  0  0  0  0
  4 15  1  0  0  0  0
  5 17  2  0  0  0  0
  6 15  2  0  0  0  0
  6 20  1  0  0  0  0
  7 19  1  0  0  0  0
  7 20  2  0  0  0  0
  8 19  1  0  0  0  0
  8 41  1  0  0  0  0
  8 42  1  0  0  0  0
  9 10  1  0  0  0  0
  9 11  1  0  0  0  0
  9 12  1  0  0  0  0
  9 26  1  0  0  0  0
 10 13  1  0  0  0  0
 10 27  1  0  0  0  0
 10 28  1  0  0  0  0
 11 14  1  0  0  0  0
 11 29  1  0  0  0  0
 11 30  1  0  0  0  0
 12 31  1  0  0  0  0
 12 32  1  0  0  0  0
 13 33  1  0  0  0  0
 13 34  1  0  0  0  0
 14 35  1  0  0  0  0
 14 36  1  0  0  0  0
 15 16  1  0  0  0  0
 16 17  1  0  0  0  0
 16 19  2  0  0  0  0
 17 18  1  0  0  0  0
 18 21  2  0  0  0  0
 18 22  1  0  0  0  0
 20 38  1  0  0  0  0
 21 23  1  0  0  0  0
 21 39  1  0  0  0  0
 22 24  2  0  0  0  0
 22 40  1  0  0  0  0
 23 25  2  0  0  0  0
 24 25  1  0  0  0  0
 24 43  1  0  0  0  0
M  END
> <PUBCHEM_COMPOUND_CID>
24905303

> <PUBCHEM_COMPOUND_CANONICALIZED>
1

> <PUBCHEM_CACTVS_COMPLEXITY>
451

> <PUBCHEM_CACTVS_HBOND_ACCEPTOR>
6

> <PUBCHEM_CACTVS_HBOND_DONOR>
3

> <PUBCHEM_CACTVS_ROTATABLE_BOND>
3

> <PUBCHEM_CACTVS_SUBSKEYS>
AAADceB7oAAEAAAAAAAAAAAAAAAAAWAAAAA8WIAAAAAAAFgB/AAAHgIYCAAADQ7BnyQ1tt7IEgCiAyZjZACShCsxpeAd2KAuT5iILqLD29OE9Ahs2BPI2CewwPAOBAABAAAACAAIAAIAAAAQAAAAAAAAAA==

> <PUBCHEM_IUPAC_OPENEYE_NAME>
5-[4-amino-1-(4-piperidylmethyl)pyrazolo[3,4-d]pyrimidin-3-yl]-2-chloro-phenol

> <PUBCHEM_IUPAC_CAS_NAME>
5-[4-amino-1-(4-piperidinylmethyl)-3-pyrazolo[3,4-d]pyrimidinyl]-2-chlorophenol

> <PUBCHEM_IUPAC_NAME_MARKUP>
5-[4-amino-1-(piperidin-4-ylmethyl)pyrazolo[3,4-d]pyrimidin-3-yl]-2-chlorophenol

> <PUBCHEM_IUPAC_NAME>
5-[4-amino-1-(piperidin-4-ylmethyl)pyrazolo[3,4-d]pyrimidin-3-yl]-2-chlorophenol

> <PUBCHEM_IUPAC_SYSTEMATIC_NAME>
5-[4-azanyl-1-(piperidin-4-ylmethyl)pyrazolo[3,4-d]pyrimidin-3-yl]-2-chloranyl-phenol

> <PUBCHEM_IUPAC_TRADITIONAL_NAME>
5-[4-amino-1-(4-piperidylmethyl)pyrazolo[3,4-d]pyrimidin-3-yl]-2-chloro-phenol

> <PUBCHEM_IUPAC_INCHI>
InChI=1S/C17H19ClN6O/c18-12-2-1-11(7-13(12)25)15-14-16(19)21-9-22-17(14)24(23-15)8-10-3-5-20-6-4-10/h1-2,7,9-10,20,25H,3-6,8H2,(H2,19,21,22)

> <PUBCHEM_IUPAC_INCHIKEY>
WXCKXLFOEBUZDO-UHFFFAOYSA-N

> <PUBCHEM_XLOGP3_AA>
2

> <PUBCHEM_EXACT_MASS>
358.1308869

> <PUBCHEM_MOLECULAR_FORMULA>
C17H19ClN6O

> <PUBCHEM_MOLECULAR_WEIGHT>
358.8

> <PUBCHEM_SMILES>
C1CNCCC1CN2C3=NC=NC(=C3C(=N2)C4=CC(=C(C=C4)Cl)O)N

> <PUBCHEM_OPENEYE_CAN_SMILES>
C1CNCCC1CN2C3=NC=NC(=C3C(=N2)C4=CC(=C(C=C4)Cl)O)N

> <PUBCHEM_OPENEYE_ISO_SMILES>
C1CNCCC1CN2C3=NC=NC(=C3C(=N2)C4=CC(=C(C=C4)Cl)O)N

> <PUBCHEM_CACTVS_TPSA>
102

> <PUBCHEM_MONOISOTOPIC_WEIGHT>
358.1308869

> <PUBCHEM_TOTAL_CHARGE>
0

> <PUBCHEM_HEAVY_ATOM_COUNT>
25

> <PUBCHEM_ATOM_DEF_STEREO_COUNT>
0

> <PUBCHEM_ATOM_UDEF_STEREO_COUNT>
0

> <PUBCHEM_BOND_DEF_STEREO_COUNT>
0

> <PUBCHEM_BOND_UDEF_STEREO_COUNT>
0

> <PUBCHEM_ISOTOPIC_ATOM_COUNT>
0

> <PUBCHEM_COMPONENT_COUNT>
1

> <PUBCHEM_CACTVS_TAUTO_COUNT>
-1

> <PUBCHEM_COORDINATE_TYPE>
1
5
255

> <PUBCHEM_BONDANNOTATIONS>
15  16  8
16  17  8
16  19  8
18  21  8
18  22  8
21  23  8
22  24  8
23  25  8
24  25  8
4  15  8
4  5  8
5  17  8
6  15  8
6  20  8
7  19  8
7  20  8

$$$$
