24755603
  -OEChem-03202501552D

 40 42  0     0  0  0  0  0  0999 V2000
   10.2619   -0.5528    0.0000 O   0  0  0  0  0  0  0  0  0  0  0  0
    4.6783   -1.3575    0.0000 N   0  0  0  0  0  0  0  0  0  0  0  0
    2.8660    0.4472    0.0000 N   0  0  0  0  0  0  0  0  0  0  0  0
    2.8660   -1.5528    0.0000 N   0  0  0  0  0  0  0  0  0  0  0  0
    5.2619   -0.5528    0.0000 C   0  0  0  0  0  0  0  0  0  0  0  0
    9.2619   -0.5528    0.0000 C   0  0  0  0  0  0  0  0  0  0  0  0
    4.6783    0.2520    0.0000 C   0  0  0  0  0  0  0  0  0  0  0  0
    6.2619   -0.5528    0.0000 C   0  0  0  0  0  0  0  0  0  0  0  0
    8.2619   -0.5528    0.0000 C   0  0  0  0  0  0  0  0  0  0  0  0
    3.7320   -0.0527    0.0000 C   0  0  0  0  0  0  0  0  0  0  0  0
    4.9889    1.2025    0.0000 C   0  0  0  0  0  0  0  0  0  0  0  0
    3.7320   -1.0528    0.0000 C   0  0  0  0  0  0  0  0  0  0  0  0
    6.7619    0.3133    0.0000 C   0  0  0  0  0  0  0  0  0  0  0  0
    6.7619   -1.4188    0.0000 C   0  0  0  0  0  0  0  0  0  0  0  0
    7.7619    0.3133    0.0000 C   0  0  0  0  0  0  0  0  0  0  0  0
    7.7619   -1.4188    0.0000 C   0  0  0  0  0  0  0  0  0  0  0  0
    9.2619   -1.5528    0.0000 C   0  0  0  0  0  0  0  0  0  0  0  0
    9.2619    0.4472    0.0000 C   0  0  0  0  0  0  0  0  0  0  0  0
    4.3211    1.9468    0.0000 C   0  0  0  0  0  0  0  0  0  0  0  0
    2.0000   -0.0527    0.0000 C   0  0  0  0  0  0  0  0  0  0  0  0
    2.0000   -1.0528    0.0000 C   0  0  0  0  0  0  0  0  0  0  0  0
    5.5359    0.9105    0.0000 H   0  0  0  0  0  0  0  0  0  0  0  0
    5.3715    1.6904    0.0000 H   0  0  0  0  0  0  0  0  0  0  0  0
    4.8709   -1.9468    0.0000 H   0  0  0  0  0  0  0  0  0  0  0  0
    6.4519    0.8502    0.0000 H   0  0  0  0  0  0  0  0  0  0  0  0
    6.4519   -1.9557    0.0000 H   0  0  0  0  0  0  0  0  0  0  0  0
    8.0719    0.8502    0.0000 H   0  0  0  0  0  0  0  0  0  0  0  0
    8.0719   -1.9557    0.0000 H   0  0  0  0  0  0  0  0  0  0  0  0
    8.6419   -1.5528    0.0000 H   0  0  0  0  0  0  0  0  0  0  0  0
    9.2619   -2.1728    0.0000 H   0  0  0  0  0  0  0  0  0  0  0  0
    9.8819   -1.5528    0.0000 H   0  0  0  0  0  0  0  0  0  0  0  0
    9.8819    0.4472    0.0000 H   0  0  0  0  0  0  0  0  0  0  0  0
    9.2619    1.0672    0.0000 H   0  0  0  0  0  0  0  0  0  0  0  0
    8.6419    0.4472    0.0000 H   0  0  0  0  0  0  0  0  0  0  0  0
    4.7826    2.3609    0.0000 H   0  0  0  0  0  0  0  0  0  0  0  0
    3.9070    2.4083    0.0000 H   0  0  0  0  0  0  0  0  0  0  0  0
    3.8596    1.5327    0.0000 H   0  0  0  0  0  0  0  0  0  0  0  0
   10.5719   -1.0897    0.0000 H   0  0  0  0  0  0  0  0  0  0  0  0
    1.4631    0.2572    0.0000 H   0  0  0  0  0  0  0  0  0  0  0  0
    1.4631   -1.3627    0.0000 H   0  0  0  0  0  0  0  0  0  0  0  0
  1  6  1  0  0  0  0
  1 38  1  0  0  0  0
  2  5  1  0  0  0  0
  2 12  1  0  0  0  0
  2 24  1  0  0  0  0
  3 10  2  0  0  0  0
  3 20  1  0  0  0  0
  4 12  2  0  0  0  0
  4 21  1  0  0  0  0
  5  7  2  0  0  0  0
  5  8  1  0  0  0  0
  6  9  1  0  0  0  0
  6 17  1  0  0  0  0
  6 18  1  0  0  0  0
  7 10  1  0  0  0  0
  7 11  1  0  0  0  0
  8 13  2  0  0  0  0
  8 14  1  0  0  0  0
  9 15  2  0  0  0  0
  9 16  1  0  0  0  0
 10 12  1  0  0  0  0
 11 19  1  0  0  0  0
 11 22  1  0  0  0  0
 11 23  1  0  0  0  0
 13 15  1  0  0  0  0
 13 25  1  0  0  0  0
 14 16  2  0  0  0  0
 14 26  1  0  0  0  0
 15 27  1  0  0  0  0
 16 28  1  0  0  0  0
 17 29  1  0  0  0  0
 17 30  1  0  0  0  0
 17 31  1  0  0  0  0
 18 32  1  0  0  0  0
 18 33  1  0  0  0  0
 18 34  1  0  0  0  0
 19 35  1  0  0  0  0
 19 36  1  0  0  0  0
 19 37  1  0  0  0  0
 20 21  2  0  0  0  0
 20 39  1  0  0  0  0
 21 40  1  0  0  0  0
M  END
> <PUBCHEM_COMPOUND_CID>
24755603

> <PUBCHEM_COMPOUND_CANONICALIZED>
1

> <PUBCHEM_CACTVS_COMPLEXITY>
352

> <PUBCHEM_CACTVS_HBOND_ACCEPTOR>
3

> <PUBCHEM_CACTVS_HBOND_DONOR>
2

> <PUBCHEM_CACTVS_ROTATABLE_BOND>
3

> <PUBCHEM_CACTVS_SUBSKEYS>
AAADceB7IAAAAAAAAAAAAAAAAAAAAWAAAAA8QAAAAAAAAFgB/AAAHgAQCAAADEzBnwQ/8L7JkgCgAzZnZACCgC2xEqAJ2SA4fJiIbuLA2dGUdAhswAPI2CeQwPAOwAAAAAAAAACAAAAAAAAAAAAAAAAAAA==

> <PUBCHEM_IUPAC_OPENEYE_NAME>
2-[4-(7-ethyl-5H-pyrrolo[2,3-b]pyrazin-6-yl)phenyl]propan-2-ol

> <PUBCHEM_IUPAC_CAS_NAME>
2-[4-(7-ethyl-5H-pyrrolo[2,3-b]pyrazin-6-yl)phenyl]-2-propanol

> <PUBCHEM_IUPAC_NAME_MARKUP>
2-[4-(7-ethyl-5<I>H</I>-pyrrolo[2,3-b]pyrazin-6-yl)phenyl]propan-2-ol

> <PUBCHEM_IUPAC_NAME>
2-[4-(7-ethyl-5H-pyrrolo[2,3-b]pyrazin-6-yl)phenyl]propan-2-ol

> <PUBCHEM_IUPAC_SYSTEMATIC_NAME>
2-[4-(7-ethyl-5H-pyrrolo[2,3-b]pyrazin-6-yl)phenyl]propan-2-ol

> <PUBCHEM_IUPAC_TRADITIONAL_NAME>
2-[4-(7-ethyl-5H-pyrrolo[2,3-b]pyrazin-6-yl)phenyl]propan-2-ol

> <PUBCHEM_IUPAC_INCHI>
InChI=1S/C17H19N3O/c1-4-13-14(20-16-15(13)18-9-10-19-16)11-5-7-12(8-6-11)17(2,3)21/h5-10,21H,4H2,1-3H3,(H,19,20)

> <PUBCHEM_IUPAC_INCHIKEY>
TVLFEDKEAOXRCZ-UHFFFAOYSA-N

> <PUBCHEM_XLOGP3_AA>
2.5

> <PUBCHEM_EXACT_MASS>
281.152812238

> <PUBCHEM_MOLECULAR_FORMULA>
C17H19N3O

> <PUBCHEM_MOLECULAR_WEIGHT>
281.35

> <PUBCHEM_SMILES>
CCC1=C(NC2=NC=CN=C12)C3=CC=C(C=C3)C(C)(C)O

> <PUBCHEM_OPENEYE_CAN_SMILES>
CCC1=C(NC2=NC=CN=C12)C3=CC=C(C=C3)C(C)(C)O

> <PUBCHEM_OPENEYE_ISO_SMILES>
CCC1=C(NC2=NC=CN=C12)C3=CC=C(C=C3)C(C)(C)O

> <PUBCHEM_CACTVS_TPSA>
61.8

> <PUBCHEM_MONOISOTOPIC_WEIGHT>
281.152812238

> <PUBCHEM_TOTAL_CHARGE>
0

> <PUBCHEM_HEAVY_ATOM_COUNT>
21

> <PUBCHEM_ATOM_DEF_STEREO_COUNT>
0

> <PUBCHEM_ATOM_UDEF_STEREO_COUNT>
0

> <PUBCHEM_BOND_DEF_STEREO_COUNT>
0

> <PUBCHEM_BOND_UDEF_STEREO_COUNT>
0

> <PUBCHEM_ISOTOPIC_ATOM_COUNT>
0

> <PUBCHEM_COMPONENT_COUNT>
1

> <PUBCHEM_CACTVS_TAUTO_COUNT>
-1

> <PUBCHEM_COORDINATE_TYPE>
1
5
255

> <PUBCHEM_BONDANNOTATIONS>
10  12  8
13  15  8
14  16  8
2  12  8
2  5  8
20  21  8
3  10  8
3  20  8
4  12  8
4  21  8
5  7  8
7  10  8
8  13  8
8  14  8
9  15  8
9  16  8

$$$$
