672301
  -OEChem-03202503262D

 43 45  0     0  0  0  0  0  0999 V2000
    2.0000   -2.3100    0.0000 O   0  0  0  0  0  0  0  0  0  0  0  0
    7.1962   -1.3100    0.0000 O   0  0  0  0  0  0  0  0  0  0  0  0
    3.7320   -1.3100    0.0000 N   0  0  0  0  0  0  0  0  0  0  0  0
    5.4641   -1.3100    0.0000 N   0  0  0  0  0  0  0  0  0  0  0  0
    6.3301    0.1900    0.0000 N   0  0  0  0  0  0  0  0  0  0  0  0
    5.4641    1.6900    0.0000 N   0  0  0  0  0  0  0  0  0  0  0  0
    9.7942    0.1900    0.0000 N   0  0  0  0  0  0  0  0  0  0  0  0
    6.3301    2.1900    0.0000 N   0  0  0  0  0  0  0  0  0  0  0  0
    3.7320   -2.3100    0.0000 C   0  0  0  0  0  0  0  0  0  0  0  0
    2.8660   -0.8100    0.0000 C   0  0  0  0  0  0  0  0  0  0  0  0
    2.8660   -2.8100    0.0000 C   0  0  0  0  0  0  0  0  0  0  0  0
    2.0000   -1.3100    0.0000 C   0  0  0  0  0  0  0  0  0  0  0  0
    4.5981   -0.8100    0.0000 C   0  0  0  0  0  0  0  0  0  0  0  0
    4.5981    0.1900    0.0000 C   0  0  0  0  0  0  0  0  0  0  0  0
    5.4641    0.6900    0.0000 C   0  0  0  0  0  0  0  0  0  0  0  0
    6.3301   -0.8100    0.0000 C   0  0  0  0  0  0  0  0  0  0  0  0
    8.0622   -0.8100    0.0000 C   0  0  0  0  0  0  0  0  0  0  0  0
    8.9282   -1.3100    0.0000 C   0  0  0  0  0  0  0  0  0  0  0  0
    9.7942   -0.8100    0.0000 C   0  0  0  0  0  0  0  0  0  0  0  0
   10.6603   -1.3100    0.0000 C   0  0  0  0  0  0  0  0  0  0  0  0
   11.5263   -0.8100    0.0000 C   0  0  0  0  0  0  0  0  0  0  0  0
   10.6603    0.6900    0.0000 C   0  0  0  0  0  0  0  0  0  0  0  0
   11.5263    0.1900    0.0000 C   0  0  0  0  0  0  0  0  0  0  0  0
    3.9441   -2.8926    0.0000 H   0  0  0  0  0  0  0  0  0  0  0  0
    4.3426   -2.2023    0.0000 H   0  0  0  0  0  0  0  0  0  0  0  0
    3.2646   -0.3351    0.0000 H   0  0  0  0  0  0  0  0  0  0  0  0
    2.4675   -0.3351    0.0000 H   0  0  0  0  0  0  0  0  0  0  0  0
    2.4675   -3.2850    0.0000 H   0  0  0  0  0  0  0  0  0  0  0  0
    3.2646   -3.2850    0.0000 H   0  0  0  0  0  0  0  0  0  0  0  0
    1.7880   -0.7274    0.0000 H   0  0  0  0  0  0  0  0  0  0  0  0
    1.3894   -1.4177    0.0000 H   0  0  0  0  0  0  0  0  0  0  0  0
    4.0611    0.5000    0.0000 H   0  0  0  0  0  0  0  0  0  0  0  0
    8.4607   -0.3351    0.0000 H   0  0  0  0  0  0  0  0  0  0  0  0
    7.6636   -0.3351    0.0000 H   0  0  0  0  0  0  0  0  0  0  0  0
    8.5297   -1.7850    0.0000 H   0  0  0  0  0  0  0  0  0  0  0  0
    9.3267   -1.7850    0.0000 H   0  0  0  0  0  0  0  0  0  0  0  0
    4.9272    2.0000    0.0000 H   0  0  0  0  0  0  0  0  0  0  0  0
   10.6603   -1.9300    0.0000 H   0  0  0  0  0  0  0  0  0  0  0  0
   12.0632   -1.1200    0.0000 H   0  0  0  0  0  0  0  0  0  0  0  0
   10.6603    1.3100    0.0000 H   0  0  0  0  0  0  0  0  0  0  0  0
    6.3301    2.8100    0.0000 H   0  0  0  0  0  0  0  0  0  0  0  0
    6.8671    1.8800    0.0000 H   0  0  0  0  0  0  0  0  0  0  0  0
   12.0632    0.5000    0.0000 H   0  0  0  0  0  0  0  0  0  0  0  0
  1 11  1  0  0  0  0
  1 12  1  0  0  0  0
  2 16  1  0  0  0  0
  2 17  1  0  0  0  0
  3  9  1  0  0  0  0
  3 10  1  0  0  0  0
  3 13  1  0  0  0  0
  4 13  2  0  0  0  0
  4 16  1  0  0  0  0
  5 15  1  0  0  0  0
  5 16  2  0  0  0  0
  6  8  1  0  0  0  0
  6 15  1  0  0  0  0
  6 37  1  0  0  0  0
  7 19  1  0  0  0  0
  7 22  2  0  0  0  0
  8 41  1  0  0  0  0
  8 42  1  0  0  0  0
  9 11  1  0  0  0  0
  9 24  1  0  0  0  0
  9 25  1  0  0  0  0
 10 12  1  0  0  0  0
 10 26  1  0  0  0  0
 10 27  1  0  0  0  0
 11 28  1  0  0  0  0
 11 29  1  0  0  0  0
 12 30  1  0  0  0  0
 12 31  1  0  0  0  0
 13 14  1  0  0  0  0
 14 15  2  0  0  0  0
 14 32  1  0  0  0  0
 17 18  1  0  0  0  0
 17 33  1  0  0  0  0
 17 34  1  0  0  0  0
 18 19  1  0  0  0  0
 18 35  1  0  0  0  0
 18 36  1  0  0  0  0
 19 20  2  0  0  0  0
 20 21  1  0  0  0  0
 20 38  1  0  0  0  0
 21 23  2  0  0  0  0
 21 39  1  0  0  0  0
 22 23  1  0  0  0  0
 22 40  1  0  0  0  0
 23 43  1  0  0  0  0
M  END
> <PUBCHEM_COMPOUND_CID>
672301

> <PUBCHEM_COMPOUND_CANONICALIZED>
1

> <PUBCHEM_CACTVS_COMPLEXITY>
342

> <PUBCHEM_CACTVS_HBOND_ACCEPTOR>
8

> <PUBCHEM_CACTVS_HBOND_DONOR>
2

> <PUBCHEM_CACTVS_ROTATABLE_BOND>
6

> <PUBCHEM_CACTVS_SUBSKEYS>
AAADceBzsAAAAAAAAAAAAAAAAAAAAAAAAAAsWLAAAAAAAAAB4AAAHgAYAAAACAjhlgY9sJdqFACgATZnZACChCkxAqId+CA4ZJiKKOLA2dGPJAhu0APYyCeQwCAAAAAAAAAAAAAAAAAAAAAAAAAAAAAAAA==

> <PUBCHEM_IUPAC_OPENEYE_NAME>
[6-morpholino-2-[2-(2-pyridyl)ethoxy]pyrimidin-4-yl]hydrazine

> <PUBCHEM_IUPAC_CAS_NAME>
[6-(4-morpholinyl)-2-[2-(2-pyridinyl)ethoxy]-4-pyrimidinyl]hydrazine

> <PUBCHEM_IUPAC_NAME_MARKUP>
[6-morpholin-4-yl-2-(2-pyridin-2-ylethoxy)pyrimidin-4-yl]hydrazine

> <PUBCHEM_IUPAC_NAME>
[6-morpholin-4-yl-2-(2-pyridin-2-ylethoxy)pyrimidin-4-yl]hydrazine

> <PUBCHEM_IUPAC_SYSTEMATIC_NAME>
[6-morpholin-4-yl-2-(2-pyridin-2-ylethoxy)pyrimidin-4-yl]diazane

> <PUBCHEM_IUPAC_TRADITIONAL_NAME>
[6-morpholino-2-[2-(2-pyridyl)ethoxy]pyrimidin-4-yl]hydrazine

> <PUBCHEM_IUPAC_INCHI>
InChI=1S/C15H20N6O2/c16-20-13-11-14(21-6-9-22-10-7-21)19-15(18-13)23-8-4-12-3-1-2-5-17-12/h1-3,5,11H,4,6-10,16H2,(H,18,19,20)

> <PUBCHEM_IUPAC_INCHIKEY>
WXUFSUOATCYYET-UHFFFAOYSA-N

> <PUBCHEM_XLOGP3_AA>
1.1

> <PUBCHEM_EXACT_MASS>
316.16477390

> <PUBCHEM_MOLECULAR_FORMULA>
C15H20N6O2

> <PUBCHEM_MOLECULAR_WEIGHT>
316.36

> <PUBCHEM_SMILES>
C1COCCN1C2=NC(=NC(=C2)NN)OCCC3=CC=CC=N3

> <PUBCHEM_OPENEYE_CAN_SMILES>
C1COCCN1C2=NC(=NC(=C2)NN)OCCC3=CC=CC=N3

> <PUBCHEM_OPENEYE_ISO_SMILES>
C1COCCN1C2=NC(=NC(=C2)NN)OCCC3=CC=CC=N3

> <PUBCHEM_CACTVS_TPSA>
98.4

> <PUBCHEM_MONOISOTOPIC_WEIGHT>
316.16477390

> <PUBCHEM_TOTAL_CHARGE>
0

> <PUBCHEM_HEAVY_ATOM_COUNT>
23

> <PUBCHEM_ATOM_DEF_STEREO_COUNT>
0

> <PUBCHEM_ATOM_UDEF_STEREO_COUNT>
0

> <PUBCHEM_BOND_DEF_STEREO_COUNT>
0

> <PUBCHEM_BOND_UDEF_STEREO_COUNT>
0

> <PUBCHEM_ISOTOPIC_ATOM_COUNT>
0

> <PUBCHEM_COMPONENT_COUNT>
1

> <PUBCHEM_CACTVS_TAUTO_COUNT>
-1

> <PUBCHEM_COORDINATE_TYPE>
1
5
255

> <PUBCHEM_BONDANNOTATIONS>
13  14  8
14  15  8
19  20  8
20  21  8
21  23  8
22  23  8
4  13  8
4  16  8
5  15  8
5  16  8
7  19  8
7  22  8

$$$$
