21907506
  -OEChem-03202504102D

 52 55  0     0  0  0  0  0  0999 V2000
    8.4530   -5.6276    0.0000 O   0  0  0  0  0  0  0  0  0  0  0  0
    4.5981    1.1276    0.0000 O   0  0  0  0  0  0  0  0  0  0  0  0
    8.7260   -3.8724    0.0000 N   0  0  0  0  0  0  0  0  0  0  0  0
    6.3301    1.1276    0.0000 N   0  0  0  0  0  0  0  0  0  0  0  0
    5.4641    2.6276    0.0000 N   0  0  0  0  0  0  0  0  0  0  0  0
    7.1962   -3.3724    0.0000 C   0  0  0  0  0  0  0  0  0  0  0  0
    6.3301   -2.8724    0.0000 C   0  0  0  0  0  0  0  0  0  0  0  0
    8.1424   -3.0676    0.0000 C   0  0  0  0  0  0  0  0  0  0  0  0
    7.1962   -4.3724    0.0000 C   0  0  0  0  0  0  0  0  0  0  0  0
    6.3301   -1.8724    0.0000 C   0  0  0  0  0  0  0  0  0  0  0  0
    8.1424   -4.6771    0.0000 C   0  0  0  0  0  0  0  0  0  0  0  0
    7.1962   -1.3724    0.0000 C   0  0  0  0  0  0  0  0  0  0  0  0
    5.4641   -3.3724    0.0000 C   0  0  0  0  0  0  0  0  0  0  0  0
    6.3301   -4.8724    0.0000 C   0  0  0  0  0  0  0  0  0  0  0  0
    5.4641   -4.3724    0.0000 C   0  0  0  0  0  0  0  0  0  0  0  0
    5.4641   -1.3724    0.0000 C   0  0  0  0  0  0  0  0  0  0  0  0
    7.1962   -0.3724    0.0000 C   0  0  0  0  0  0  0  0  0  0  0  0
    6.3301    0.1276    0.0000 C   0  0  0  0  0  0  0  0  0  0  0  0
    5.4641   -0.3724    0.0000 C   0  0  0  0  0  0  0  0  0  0  0  0
    8.0622   -1.8724    0.0000 C   0  0  0  0  0  0  0  0  0  0  0  0
    4.5981    3.1276    0.0000 C   0  0  0  0  0  0  0  0  0  0  0  0
    5.4641    1.6276    0.0000 C   0  0  0  0  0  0  0  0  0  0  0  0
    3.7320    4.6276    0.0000 C   0  0  0  0  0  0  0  0  0  0  0  0
    2.8660    3.1276    0.0000 C   0  0  0  0  0  0  0  0  0  0  0  0
    3.7320    2.6276    0.0000 C   0  0  0  0  0  0  0  0  0  0  0  0
    4.5981    4.1276    0.0000 C   0  0  0  0  0  0  0  0  0  0  0  0
    2.8660    4.1276    0.0000 C   0  0  0  0  0  0  0  0  0  0  0  0
    3.7320    5.6276    0.0000 C   0  0  0  0  0  0  0  0  0  0  0  0
    2.0000    2.6276    0.0000 C   0  0  0  0  0  0  0  0  0  0  0  0
    8.6798   -2.7584    0.0000 H   0  0  0  0  0  0  0  0  0  0  0  0
    7.8913   -2.5007    0.0000 H   0  0  0  0  0  0  0  0  0  0  0  0
    9.3460   -3.8724    0.0000 H   0  0  0  0  0  0  0  0  0  0  0  0
    4.9272   -3.0624    0.0000 H   0  0  0  0  0  0  0  0  0  0  0  0
    6.3301   -5.4924    0.0000 H   0  0  0  0  0  0  0  0  0  0  0  0
    4.9272   -4.6824    0.0000 H   0  0  0  0  0  0  0  0  0  0  0  0
    4.9272   -1.6824    0.0000 H   0  0  0  0  0  0  0  0  0  0  0  0
    7.7331   -0.0624    0.0000 H   0  0  0  0  0  0  0  0  0  0  0  0
    4.9272   -0.0624    0.0000 H   0  0  0  0  0  0  0  0  0  0  0  0
    7.7522   -2.4093    0.0000 H   0  0  0  0  0  0  0  0  0  0  0  0
    8.5991   -2.1824    0.0000 H   0  0  0  0  0  0  0  0  0  0  0  0
    8.3722   -1.3354    0.0000 H   0  0  0  0  0  0  0  0  0  0  0  0
    6.8671    1.4376    0.0000 H   0  0  0  0  0  0  0  0  0  0  0  0
    6.0010    2.9376    0.0000 H   0  0  0  0  0  0  0  0  0  0  0  0
    3.7320    2.0076    0.0000 H   0  0  0  0  0  0  0  0  0  0  0  0
    5.1350    4.4376    0.0000 H   0  0  0  0  0  0  0  0  0  0  0  0
    2.3291    4.4376    0.0000 H   0  0  0  0  0  0  0  0  0  0  0  0
    4.3520    5.6276    0.0000 H   0  0  0  0  0  0  0  0  0  0  0  0
    3.7320    6.2476    0.0000 H   0  0  0  0  0  0  0  0  0  0  0  0
    3.1120    5.6276    0.0000 H   0  0  0  0  0  0  0  0  0  0  0  0
    1.6900    3.1646    0.0000 H   0  0  0  0  0  0  0  0  0  0  0  0
    1.4631    2.3176    0.0000 H   0  0  0  0  0  0  0  0  0  0  0  0
    2.3100    2.0907    0.0000 H   0  0  0  0  0  0  0  0  0  0  0  0
  1 11  2  0  0  0  0
  2 22  2  0  0  0  0
  3  8  1  0  0  0  0
  3 11  1  0  0  0  0
  3 32  1  0  0  0  0
  4 18  1  0  0  0  0
  4 22  1  0  0  0  0
  4 42  1  0  0  0  0
  5 21  1  0  0  0  0
  5 22  1  0  0  0  0
  5 43  1  0  0  0  0
  6  7  2  0  0  0  0
  6  8  1  0  0  0  0
  6  9  1  0  0  0  0
  7 10  1  0  0  0  0
  7 13  1  0  0  0  0
  8 30  1  0  0  0  0
  8 31  1  0  0  0  0
  9 11  1  0  0  0  0
  9 14  2  0  0  0  0
 10 12  2  0  0  0  0
 10 16  1  0  0  0  0
 12 17  1  0  0  0  0
 12 20  1  0  0  0  0
 13 15  2  0  0  0  0
 13 33  1  0  0  0  0
 14 15  1  0  0  0  0
 14 34  1  0  0  0  0
 15 35  1  0  0  0  0
 16 19  2  0  0  0  0
 16 36  1  0  0  0  0
 17 18  2  0  0  0  0
 17 37  1  0  0  0  0
 18 19  1  0  0  0  0
 19 38  1  0  0  0  0
 20 39  1  0  0  0  0
 20 40  1  0  0  0  0
 20 41  1  0  0  0  0
 21 25  2  0  0  0  0
 21 26  1  0  0  0  0
 23 26  2  0  0  0  0
 23 27  1  0  0  0  0
 23 28  1  0  0  0  0
 24 25  1  0  0  0  0
 24 27  2  0  0  0  0
 24 29  1  0  0  0  0
 25 44  1  0  0  0  0
 26 45  1  0  0  0  0
 27 46  1  0  0  0  0
 28 47  1  0  0  0  0
 28 48  1  0  0  0  0
 28 49  1  0  0  0  0
 29 50  1  0  0  0  0
 29 51  1  0  0  0  0
 29 52  1  0  0  0  0
M  END
> <PUBCHEM_COMPOUND_CID>
21907506

> <PUBCHEM_COMPOUND_CANONICALIZED>
1

> <PUBCHEM_CACTVS_COMPLEXITY>
599

> <PUBCHEM_CACTVS_HBOND_ACCEPTOR>
2

> <PUBCHEM_CACTVS_HBOND_DONOR>
3

> <PUBCHEM_CACTVS_ROTATABLE_BOND>
3

> <PUBCHEM_CACTVS_SUBSKEYS>
AAADceB7MAAAAAAAAAAAAAAAAAAAAWAAAAAwYMAAAAAAAFgBUAAAHgAQAAAADAjBmAQzwILAAACIAiVSUACCAAAlAgAIiIEIZMiIIDLAlZGEIQholgLIyacciMCOiAACQAAQAAAQAASAACAAAAAAAAAAAA==

> <PUBCHEM_IUPAC_OPENEYE_NAME>
1-(3,5-dimethylphenyl)-3-[3-methyl-4-(1-oxoisoindolin-4-yl)phenyl]urea

> <PUBCHEM_IUPAC_CAS_NAME>
1-(3,5-dimethylphenyl)-3-[3-methyl-4-(1-oxo-2,3-dihydroisoindol-4-yl)phenyl]urea

> <PUBCHEM_IUPAC_NAME_MARKUP>
1-(3,5-dimethylphenyl)-3-[3-methyl-4-(1-oxo-2,3-dihydroisoindol-4-yl)phenyl]urea

> <PUBCHEM_IUPAC_NAME>
1-(3,5-dimethylphenyl)-3-[3-methyl-4-(1-oxo-2,3-dihydroisoindol-4-yl)phenyl]urea

> <PUBCHEM_IUPAC_SYSTEMATIC_NAME>
1-(3,5-dimethylphenyl)-3-[3-methyl-4-(1-oxidanylidene-2,3-dihydroisoindol-4-yl)phenyl]urea

> <PUBCHEM_IUPAC_TRADITIONAL_NAME>
1-(3,5-dimethylphenyl)-3-[4-(1-ketoisoindolin-4-yl)-3-methyl-phenyl]urea

> <PUBCHEM_IUPAC_INCHI>
InChI=1S/C24H23N3O2/c1-14-9-15(2)11-18(10-14)27-24(29)26-17-7-8-19(16(3)12-17)20-5-4-6-21-22(20)13-25-23(21)28/h4-12H,13H2,1-3H3,(H,25,28)(H2,26,27,29)

> <PUBCHEM_IUPAC_INCHIKEY>
HCNIBOQWDVOZKF-UHFFFAOYSA-N

> <PUBCHEM_XLOGP3_AA>
4.1

> <PUBCHEM_EXACT_MASS>
385.17902698

> <PUBCHEM_MOLECULAR_FORMULA>
C24H23N3O2

> <PUBCHEM_MOLECULAR_WEIGHT>
385.5

> <PUBCHEM_SMILES>
CC1=CC(=CC(=C1)NC(=O)NC2=CC(=C(C=C2)C3=C4CNC(=O)C4=CC=C3)C)C

> <PUBCHEM_OPENEYE_CAN_SMILES>
CC1=CC(=CC(=C1)NC(=O)NC2=CC(=C(C=C2)C3=C4CNC(=O)C4=CC=C3)C)C

> <PUBCHEM_OPENEYE_ISO_SMILES>
CC1=CC(=CC(=C1)NC(=O)NC2=CC(=C(C=C2)C3=C4CNC(=O)C4=CC=C3)C)C

> <PUBCHEM_CACTVS_TPSA>
70.2

> <PUBCHEM_MONOISOTOPIC_WEIGHT>
385.17902698

> <PUBCHEM_TOTAL_CHARGE>
0

> <PUBCHEM_HEAVY_ATOM_COUNT>
29

> <PUBCHEM_ATOM_DEF_STEREO_COUNT>
0

> <PUBCHEM_ATOM_UDEF_STEREO_COUNT>
0

> <PUBCHEM_BOND_DEF_STEREO_COUNT>
0

> <PUBCHEM_BOND_UDEF_STEREO_COUNT>
0

> <PUBCHEM_ISOTOPIC_ATOM_COUNT>
0

> <PUBCHEM_COMPONENT_COUNT>
1

> <PUBCHEM_CACTVS_TAUTO_COUNT>
-1

> <PUBCHEM_COORDINATE_TYPE>
1
5
255

> <PUBCHEM_BONDANNOTATIONS>
10  12  8
10  16  8
12  17  8
13  15  8
14  15  8
16  19  8
17  18  8
18  19  8
21  25  8
21  26  8
23  26  8
23  27  8
24  25  8
24  27  8
6  7  8
6  9  8
7  13  8
9  14  8

$$$$
