9844320
  -OEChem-03202500382D

 51 55  0     1  0  0  0  0  0999 V2000
    6.1279   -2.0946    0.0000 Cl  0  0  0  0  0  0  0  0  0  0  0  0
    5.2740    2.4746    0.0000 N   0  0  3  0  0  0  0  0  0  0  0  0
    5.2663    4.4746    0.0000 N   0  0  0  0  0  0  0  0  0  0  0  0
    4.3798    0.9469    0.0000 N   0  0  0  0  0  0  0  0  0  0  0  0
    3.5298   -0.5946    0.0000 N   0  0  0  0  0  0  0  0  0  0  0  0
    5.2619   -1.5946    0.0000 N   0  0  0  0  0  0  0  0  0  0  0  0
    4.3958   -3.0946    0.0000 N   0  0  0  0  0  0  0  0  0  0  0  0
    2.0000   -1.0946    0.0000 N   0  0  0  0  0  0  0  0  0  0  0  0
    4.4022    3.9713    0.0000 C   0  0  2  0  0  0  0  0  0  0  0  0
    4.4060    2.9713    0.0000 C   0  0  0  0  0  0  0  0  0  0  0  0
    6.1381    2.9780    0.0000 C   0  0  0  0  0  0  0  0  0  0  0  0
    6.1342    3.9780    0.0000 C   0  0  0  0  0  0  0  0  0  0  0  0
    5.2778    1.4746    0.0000 C   0  0  0  0  0  0  0  0  0  0  0  0
    3.5342    4.4680    0.0000 C   0  0  0  0  0  0  0  0  0  0  0  0
    6.1799    0.9538    0.0000 C   0  0  0  0  0  0  0  0  0  0  0  0
    4.3958   -0.0946    0.0000 C   0  0  0  0  0  0  0  0  0  0  0  0
    5.2619   -0.5946    0.0000 C   0  0  0  0  0  0  0  0  0  0  0  0
    6.1719   -0.0878    0.0000 C   0  0  0  0  0  0  0  0  0  0  0  0
    3.5298   -1.5946    0.0000 C   0  0  0  0  0  0  0  0  0  0  0  0
    4.3958   -2.0946    0.0000 C   0  0  0  0  0  0  0  0  0  0  0  0
    2.5836   -0.2899    0.0000 C   0  0  0  0  0  0  0  0  0  0  0  0
    2.5836   -1.8994    0.0000 C   0  0  0  0  0  0  0  0  0  0  0  0
    5.2619   -3.5946    0.0000 C   0  0  0  0  0  0  0  0  0  0  0  0
    5.2619   -4.5946    0.0000 C   0  0  0  0  0  0  0  0  0  0  0  0
    6.1279   -3.0946    0.0000 C   0  0  0  0  0  0  0  0  0  0  0  0
    6.1279   -5.0946    0.0000 C   0  0  0  0  0  0  0  0  0  0  0  0
    4.3958   -5.0946    0.0000 C   0  0  0  0  0  0  0  0  0  0  0  0
    6.9939   -3.5946    0.0000 C   0  0  0  0  0  0  0  0  0  0  0  0
    6.9939   -4.5946    0.0000 C   0  0  0  0  0  0  0  0  0  0  0  0
    4.3998    4.5913    0.0000 H   0  0  0  0  0  0  0  0  0  0  0  0
    3.7950    3.0766    0.0000 H   0  0  0  0  0  0  0  0  0  0  0  0
    4.1962    2.3879    0.0000 H   0  0  0  0  0  0  0  0  0  0  0  0
    6.3524    2.3962    0.0000 H   0  0  0  0  0  0  0  0  0  0  0  0
    6.7482    3.0880    0.0000 H   0  0  0  0  0  0  0  0  0  0  0  0
    6.7452    3.8727    0.0000 H   0  0  0  0  0  0  0  0  0  0  0  0
    6.3440    4.5614    0.0000 H   0  0  0  0  0  0  0  0  0  0  0  0
    5.2639    5.0946    0.0000 H   0  0  0  0  0  0  0  0  0  0  0  0
    3.8422    5.0061    0.0000 H   0  0  0  0  0  0  0  0  0  0  0  0
    2.9961    4.7759    0.0000 H   0  0  0  0  0  0  0  0  0  0  0  0
    3.2263    3.9298    0.0000 H   0  0  0  0  0  0  0  0  0  0  0  0
    6.7180    1.2618    0.0000 H   0  0  0  0  0  0  0  0  0  0  0  0
    6.7052   -0.4040    0.0000 H   0  0  0  0  0  0  0  0  0  0  0  0
    2.3910    0.2994    0.0000 H   0  0  0  0  0  0  0  0  0  0  0  0
    2.3910   -2.4887    0.0000 H   0  0  0  0  0  0  0  0  0  0  0  0
    3.8589   -3.4046    0.0000 H   0  0  0  0  0  0  0  0  0  0  0  0
    6.1279   -5.7146    0.0000 H   0  0  0  0  0  0  0  0  0  0  0  0
    4.0858   -4.5577    0.0000 H   0  0  0  0  0  0  0  0  0  0  0  0
    3.8589   -5.4046    0.0000 H   0  0  0  0  0  0  0  0  0  0  0  0
    4.7058   -5.6316    0.0000 H   0  0  0  0  0  0  0  0  0  0  0  0
    7.5309   -3.2846    0.0000 H   0  0  0  0  0  0  0  0  0  0  0  0
    7.5309   -4.9046    0.0000 H   0  0  0  0  0  0  0  0  0  0  0  0
  1 25  1  0  0  0  0
  2 10  1  0  0  0  0
  2 11  1  0  0  0  0
  2 13  1  0  0  0  0
  3  9  1  0  0  0  0
  3 12  1  0  0  0  0
  3 37  1  0  0  0  0
  4 13  2  0  0  0  0
  4 16  1  0  0  0  0
  5 16  1  0  0  0  0
  5 19  1  0  0  0  0
  5 21  1  0  0  0  0
  6 17  1  0  0  0  0
  6 20  2  0  0  0  0
  7 20  1  0  0  0  0
  7 23  1  0  0  0  0
  7 45  1  0  0  0  0
  8 21  2  0  0  0  0
  8 22  1  0  0  0  0
  9 10  1  0  0  0  0
  9 14  1  6  0  0  0
  9 30  1  0  0  0  0
 10 31  1  0  0  0  0
 10 32  1  0  0  0  0
 11 12  1  0  0  0  0
 11 33  1  0  0  0  0
 11 34  1  0  0  0  0
 12 35  1  0  0  0  0
 12 36  1  0  0  0  0
 13 15  1  0  0  0  0
 14 38  1  0  0  0  0
 14 39  1  0  0  0  0
 14 40  1  0  0  0  0
 15 18  2  0  0  0  0
 15 41  1  0  0  0  0
 16 17  2  0  0  0  0
 17 18  1  0  0  0  0
 18 42  1  0  0  0  0
 19 20  1  0  0  0  0
 19 22  2  0  0  0  0
 21 43  1  0  0  0  0
 22 44  1  0  0  0  0
 23 24  2  0  0  0  0
 23 25  1  0  0  0  0
 24 26  1  0  0  0  0
 24 27  1  0  0  0  0
 25 28  2  0  0  0  0
 26 29  2  0  0  0  0
 26 46  1  0  0  0  0
 27 47  1  0  0  0  0
 27 48  1  0  0  0  0
 27 49  1  0  0  0  0
 28 29  1  0  0  0  0
 28 50  1  0  0  0  0
 29 51  1  0  0  0  0
M  END
> <PUBCHEM_COMPOUND_CID>
9844320

> <PUBCHEM_COMPOUND_CANONICALIZED>
1

> <PUBCHEM_CACTVS_COMPLEXITY>
565

> <PUBCHEM_CACTVS_HBOND_ACCEPTOR>
6

> <PUBCHEM_CACTVS_HBOND_DONOR>
2

> <PUBCHEM_CACTVS_ROTATABLE_BOND>
3

> <PUBCHEM_CACTVS_SUBSKEYS>
AAADceB7gAAEAAAAAAAAAAAAAAAAAWAAAAA8WLEAAAAAAFix/AAAHAIQAAAADCrBHyQ/8L/MGACgAzZnZACCgC0xF6AJ2KA4dpiIaOLB29HUJAhokALIyCcQgAAOAAAAIAACABAAAABAAAQAIAAAAAAAAA==

> <PUBCHEM_IUPAC_OPENEYE_NAME>
N-(2-chloro-6-methyl-phenyl)-12-[(3S)-3-methylpiperazin-1-yl]-2,4,8,13-tetrazatricyclo[7.4.0.02,6]trideca-1(9),3,5,7,10,12-hexaen-7-amine

> <PUBCHEM_IUPAC_CAS_NAME>
N-(2-chloro-6-methylphenyl)-12-[(3S)-3-methyl-1-piperazinyl]-2,4,8,13-tetrazatricyclo[7.4.0.02,6]trideca-1(9),3,5,7,10,12-hexaen-7-amine

> <PUBCHEM_IUPAC_NAME_MARKUP>
<I>N</I>-(2-chloro-6-methylphenyl)-12-[(3<I>S</I>)-3-methylpiperazin-1-yl]-2,4,8,13-tetrazatricyclo[7.4.0.0<SUP>2,6</SUP>]trideca-1(9),3,5,7,10,12-hexaen-7-amine

> <PUBCHEM_IUPAC_NAME>
N-(2-chloro-6-methylphenyl)-12-[(3S)-3-methylpiperazin-1-yl]-2,4,8,13-tetrazatricyclo[7.4.0.02,6]trideca-1(9),3,5,7,10,12-hexaen-7-amine

> <PUBCHEM_IUPAC_SYSTEMATIC_NAME>
N-(2-chloranyl-6-methyl-phenyl)-12-[(3S)-3-methylpiperazin-1-yl]-2,4,8,13-tetrazatricyclo[7.4.0.02,6]trideca-1(9),3,5,7,10,12-hexaen-7-amine

> <PUBCHEM_IUPAC_TRADITIONAL_NAME>
(2-chloro-6-methyl-phenyl)-[12-[(3S)-3-methylpiperazino]-2,4,8,13-tetrazatricyclo[7.4.0.02,6]trideca-1(9),3,5,7,10,12-hexaen-7-yl]amine

> <PUBCHEM_IUPAC_INCHI>
InChI=1S/C21H22ClN7/c1-13-4-3-5-15(22)19(13)27-20-17-10-23-12-29(17)21-16(25-20)6-7-18(26-21)28-9-8-24-14(2)11-28/h3-7,10,12,14,24H,8-9,11H2,1-2H3,(H,25,27)/t14-/m0/s1

> <PUBCHEM_IUPAC_INCHIKEY>
PUNYTBZWCMNSRO-AWEZNQCLSA-N

> <PUBCHEM_XLOGP3_AA>
4.6

> <PUBCHEM_EXACT_MASS>
407.1625214

> <PUBCHEM_MOLECULAR_FORMULA>
C21H22ClN7

> <PUBCHEM_MOLECULAR_WEIGHT>
407.9

> <PUBCHEM_SMILES>
C[C@H]1CN(CCN1)C2=NC3=C(C=C2)N=C(C4=CN=CN43)NC5=C(C=CC=C5Cl)C

> <PUBCHEM_OPENEYE_CAN_SMILES>
CC1CN(CCN1)C2=NC3=C(C=C2)N=C(C4=CN=CN43)NC5=C(C=CC=C5Cl)C

> <PUBCHEM_OPENEYE_ISO_SMILES>
C[C@H]1CN(CCN1)C2=NC3=C(C=C2)N=C(C4=CN=CN43)NC5=C(C=CC=C5Cl)C

> <PUBCHEM_CACTVS_TPSA>
70.4

> <PUBCHEM_MONOISOTOPIC_WEIGHT>
407.1625214

> <PUBCHEM_TOTAL_CHARGE>
0

> <PUBCHEM_HEAVY_ATOM_COUNT>
29

> <PUBCHEM_ATOM_DEF_STEREO_COUNT>
1

> <PUBCHEM_ATOM_UDEF_STEREO_COUNT>
0

> <PUBCHEM_BOND_DEF_STEREO_COUNT>
0

> <PUBCHEM_BOND_UDEF_STEREO_COUNT>
0

> <PUBCHEM_ISOTOPIC_ATOM_COUNT>
0

> <PUBCHEM_COMPONENT_COUNT>
1

> <PUBCHEM_CACTVS_TAUTO_COUNT>
-1

> <PUBCHEM_COORDINATE_TYPE>
1
5
255

> <PUBCHEM_BONDANNOTATIONS>
13  15  8
15  18  8
16  17  8
17  18  8
19  20  8
19  22  8
23  24  8
23  25  8
24  26  8
25  28  8
26  29  8
28  29  8
4  13  8
4  16  8
5  16  8
5  19  8
5  21  8
6  17  8
6  20  8
8  21  8
8  22  8
9  14  6

$$$$
