49830867
  -OEChem-03202503152D

109110  0     0  0  0  0  0  0999 V2000
   12.0632    3.1550    0.0000 O   0  0  0  0  0  0  0  0  0  0  0  0
    7.7331   -4.3450    0.0000 O   0  0  0  0  0  0  0  0  0  0  0  0
    8.5991    0.1550    0.0000 N   0  0  0  0  0  0  0  0  0  0  0  0
   10.3312    3.1550    0.0000 N   0  0  0  0  0  0  0  0  0  0  0  0
    6.8671   -2.8450    0.0000 N   0  0  0  0  0  0  0  0  0  0  0  0
   11.1972    4.6550    0.0000 N   0  0  0  0  0  0  0  0  0  0  0  0
    6.0010   -4.3450    0.0000 N   0  0  0  0  0  0  0  0  0  0  0  0
   15.5273    5.1550    0.0000 N   0  0  0  0  0  0  0  0  0  0  0  0
    7.7331   -8.3450    0.0000 N   0  0  0  0  0  0  0  0  0  0  0  0
   13.7953    8.1550    0.0000 N   0  0  0  0  0  0  0  0  0  0  0  0
    4.2690   -8.3450    0.0000 N   0  0  0  0  0  0  0  0  0  0  0  0
   16.3933    4.6550    0.0000 N   0  0  0  0  0  0  0  0  0  0  0  0
    8.5991   -8.8450    0.0000 N   0  0  0  0  0  0  0  0  0  0  0  0
   13.7953    9.1550    0.0000 N   0  0  0  0  0  0  0  0  0  0  0  0
    3.4030   -8.8450    0.0000 N   0  0  0  0  0  0  0  0  0  0  0  0
   18.1254    4.6550    0.0000 N   0  0  0  0  0  0  0  0  0  0  0  0
   17.2594    6.1550    0.0000 N   0  0  0  0  0  0  0  0  0  0  0  0
    9.4651  -10.3450    0.0000 N   0  0  0  0  0  0  0  0  0  0  0  0
    7.7331  -10.3450    0.0000 N   0  0  0  0  0  0  0  0  0  0  0  0
   14.6613   10.6550    0.0000 N   0  0  0  0  0  0  0  0  0  0  0  0
   15.5273    9.1550    0.0000 N   0  0  0  0  0  0  0  0  0  0  0  0
    2.5369  -10.3450    0.0000 N   0  0  0  0  0  0  0  0  0  0  0  0
    4.2690  -10.3450    0.0000 N   0  0  0  0  0  0  0  0  0  0  0  0
    9.4651    0.6550    0.0000 C   0  0  0  0  0  0  0  0  0  0  0  0
    8.5991   -0.8450    0.0000 C   0  0  0  0  0  0  0  0  0  0  0  0
    9.4651    1.6550    0.0000 C   0  0  0  0  0  0  0  0  0  0  0  0
    7.7331   -1.3450    0.0000 C   0  0  0  0  0  0  0  0  0  0  0  0
   10.3312    2.1550    0.0000 C   0  0  0  0  0  0  0  0  0  0  0  0
    7.7331   -2.3450    0.0000 C   0  0  0  0  0  0  0  0  0  0  0  0
    7.7331    0.6550    0.0000 C   0  0  0  0  0  0  0  0  0  0  0  0
   11.1972    3.6550    0.0000 C   0  0  0  0  0  0  0  0  0  0  0  0
    6.8671   -3.8450    0.0000 C   0  0  0  0  0  0  0  0  0  0  0  0
   12.0632    5.1550    0.0000 C   0  0  0  0  0  0  0  0  0  0  0  0
    6.0010   -5.3450    0.0000 C   0  0  0  0  0  0  0  0  0  0  0  0
   12.0632    6.1550    0.0000 C   0  0  0  0  0  0  0  0  0  0  0  0
    5.1350   -5.8450    0.0000 C   0  0  0  0  0  0  0  0  0  0  0  0
   12.9292    4.6550    0.0000 C   0  0  0  0  0  0  0  0  0  0  0  0
    6.8671   -5.8450    0.0000 C   0  0  0  0  0  0  0  0  0  0  0  0
   12.9292    6.6550    0.0000 C   0  0  0  0  0  0  0  0  0  0  0  0
    5.1350   -6.8450    0.0000 C   0  0  0  0  0  0  0  0  0  0  0  0
   13.7953    5.1550    0.0000 C   0  0  0  0  0  0  0  0  0  0  0  0
    6.8671   -6.8450    0.0000 C   0  0  0  0  0  0  0  0  0  0  0  0
   13.7953    6.1550    0.0000 C   0  0  0  0  0  0  0  0  0  0  0  0
    6.0010   -7.3450    0.0000 C   0  0  0  0  0  0  0  0  0  0  0  0
   14.6613    4.6550    0.0000 C   0  0  0  0  0  0  0  0  0  0  0  0
    7.7331   -7.3450    0.0000 C   0  0  0  0  0  0  0  0  0  0  0  0
   12.9292    7.6550    0.0000 C   0  0  0  0  0  0  0  0  0  0  0  0
    4.2690   -7.3450    0.0000 C   0  0  0  0  0  0  0  0  0  0  0  0
   14.6613    3.6550    0.0000 C   0  0  0  0  0  0  0  0  0  0  0  0
    8.5991   -6.8450    0.0000 C   0  0  0  0  0  0  0  0  0  0  0  0
   12.0632    8.1550    0.0000 C   0  0  0  0  0  0  0  0  0  0  0  0
    3.4030   -6.8450    0.0000 C   0  0  0  0  0  0  0  0  0  0  0  0
   17.2594    5.1550    0.0000 C   0  0  0  0  0  0  0  0  0  0  0  0
    8.5991   -9.8450    0.0000 C   0  0  0  0  0  0  0  0  0  0  0  0
   14.6613    9.6550    0.0000 C   0  0  0  0  0  0  0  0  0  0  0  0
    3.4030   -9.8450    0.0000 C   0  0  0  0  0  0  0  0  0  0  0  0
    9.6772    0.0724    0.0000 H   0  0  0  0  0  0  0  0  0  0  0  0
   10.0757    0.7627    0.0000 H   0  0  0  0  0  0  0  0  0  0  0  0
    8.8112   -1.4276    0.0000 H   0  0  0  0  0  0  0  0  0  0  0  0
    9.2097   -0.7373    0.0000 H   0  0  0  0  0  0  0  0  0  0  0  0
    9.2531    2.2376    0.0000 H   0  0  0  0  0  0  0  0  0  0  0  0
    8.8546    1.5473    0.0000 H   0  0  0  0  0  0  0  0  0  0  0  0
    7.5210   -0.7624    0.0000 H   0  0  0  0  0  0  0  0  0  0  0  0
    7.1225   -1.4527    0.0000 H   0  0  0  0  0  0  0  0  0  0  0  0
   10.5432    1.5724    0.0000 H   0  0  0  0  0  0  0  0  0  0  0  0
   10.9417    2.2627    0.0000 H   0  0  0  0  0  0  0  0  0  0  0  0
    7.9451   -2.9276    0.0000 H   0  0  0  0  0  0  0  0  0  0  0  0
    8.3437   -2.2373    0.0000 H   0  0  0  0  0  0  0  0  0  0  0  0
    8.0431    1.1919    0.0000 H   0  0  0  0  0  0  0  0  0  0  0  0
    7.1962    0.9650    0.0000 H   0  0  0  0  0  0  0  0  0  0  0  0
    7.4231    0.1181    0.0000 H   0  0  0  0  0  0  0  0  0  0  0  0
    9.7942    3.4650    0.0000 H   0  0  0  0  0  0  0  0  0  0  0  0
    6.3301   -2.5350    0.0000 H   0  0  0  0  0  0  0  0  0  0  0  0
   10.6603    4.9650    0.0000 H   0  0  0  0  0  0  0  0  0  0  0  0
    5.4641   -4.0350    0.0000 H   0  0  0  0  0  0  0  0  0  0  0  0
   11.5263    6.4650    0.0000 H   0  0  0  0  0  0  0  0  0  0  0  0
    4.5981   -5.5350    0.0000 H   0  0  0  0  0  0  0  0  0  0  0  0
   12.9292    4.0350    0.0000 H   0  0  0  0  0  0  0  0  0  0  0  0
    7.4040   -5.5350    0.0000 H   0  0  0  0  0  0  0  0  0  0  0  0
   14.3322    6.4650    0.0000 H   0  0  0  0  0  0  0  0  0  0  0  0
    6.0010   -7.9650    0.0000 H   0  0  0  0  0  0  0  0  0  0  0  0
   14.0413    3.6550    0.0000 H   0  0  0  0  0  0  0  0  0  0  0  0
   14.6613    3.0350    0.0000 H   0  0  0  0  0  0  0  0  0  0  0  0
   15.2813    3.6550    0.0000 H   0  0  0  0  0  0  0  0  0  0  0  0
    8.9091   -7.3819    0.0000 H   0  0  0  0  0  0  0  0  0  0  0  0
    9.1360   -6.5350    0.0000 H   0  0  0  0  0  0  0  0  0  0  0  0
    8.2891   -6.3081    0.0000 H   0  0  0  0  0  0  0  0  0  0  0  0
   12.3732    8.6919    0.0000 H   0  0  0  0  0  0  0  0  0  0  0  0
   11.5263    8.4650    0.0000 H   0  0  0  0  0  0  0  0  0  0  0  0
   11.7532    7.6181    0.0000 H   0  0  0  0  0  0  0  0  0  0  0  0
    3.7130   -6.3081    0.0000 H   0  0  0  0  0  0  0  0  0  0  0  0
    2.8660   -6.5350    0.0000 H   0  0  0  0  0  0  0  0  0  0  0  0
    3.0930   -7.3819    0.0000 H   0  0  0  0  0  0  0  0  0  0  0  0
   18.6623    4.9650    0.0000 H   0  0  0  0  0  0  0  0  0  0  0  0
   18.1254    4.0350    0.0000 H   0  0  0  0  0  0  0  0  0  0  0  0
   17.7963    6.4650    0.0000 H   0  0  0  0  0  0  0  0  0  0  0  0
   16.7224    6.4650    0.0000 H   0  0  0  0  0  0  0  0  0  0  0  0
    9.4651  -10.9650    0.0000 H   0  0  0  0  0  0  0  0  0  0  0  0
   10.0021  -10.0350    0.0000 H   0  0  0  0  0  0  0  0  0  0  0  0
    7.7331  -10.9650    0.0000 H   0  0  0  0  0  0  0  0  0  0  0  0
    7.1962  -10.0350    0.0000 H   0  0  0  0  0  0  0  0  0  0  0  0
   15.1982   10.9650    0.0000 H   0  0  0  0  0  0  0  0  0  0  0  0
   14.1244   10.9650    0.0000 H   0  0  0  0  0  0  0  0  0  0  0  0
   16.0643    9.4650    0.0000 H   0  0  0  0  0  0  0  0  0  0  0  0
   15.5273    8.5350    0.0000 H   0  0  0  0  0  0  0  0  0  0  0  0
    2.5369  -10.9650    0.0000 H   0  0  0  0  0  0  0  0  0  0  0  0
    2.0000  -10.0350    0.0000 H   0  0  0  0  0  0  0  0  0  0  0  0
    4.2690  -10.9650    0.0000 H   0  0  0  0  0  0  0  0  0  0  0  0
    4.8059  -10.0350    0.0000 H   0  0  0  0  0  0  0  0  0  0  0  0
  1 31  2  0  0  0  0
  2 32  2  0  0  0  0
  3 24  1  0  0  0  0
  3 25  1  0  0  0  0
  3 30  1  0  0  0  0
  4 28  1  0  0  0  0
  4 31  1  0  0  0  0
  4 72  1  0  0  0  0
  5 29  1  0  0  0  0
  5 32  1  0  0  0  0
  5 73  1  0  0  0  0
  6 31  1  0  0  0  0
  6 33  1  0  0  0  0
  6 74  1  0  0  0  0
  7 32  1  0  0  0  0
  7 34  1  0  0  0  0
  7 75  1  0  0  0  0
  8 12  1  0  0  0  0
  8 45  2  3  0  0  0
  9 13  1  0  0  0  0
  9 46  2  3  0  0  0
 10 14  1  0  0  0  0
 10 47  2  3  0  0  0
 11 15  1  0  0  0  0
 11 48  2  3  0  0  0
 12 53  2  0  0  0  0
 13 54  2  0  0  0  0
 14 55  2  0  0  0  0
 15 56  2  0  0  0  0
 16 53  1  0  0  0  0
 16 94  1  0  0  0  0
 16 95  1  0  0  0  0
 17 53  1  0  0  0  0
 17 96  1  0  0  0  0
 17 97  1  0  0  0  0
 18 54  1  0  0  0  0
 18 98  1  0  0  0  0
 18 99  1  0  0  0  0
 19 54  1  0  0  0  0
 19100  1  0  0  0  0
 19101  1  0  0  0  0
 20 55  1  0  0  0  0
 20102  1  0  0  0  0
 20103  1  0  0  0  0
 21 55  1  0  0  0  0
 21104  1  0  0  0  0
 21105  1  0  0  0  0
 22 56  1  0  0  0  0
 22106  1  0  0  0  0
 22107  1  0  0  0  0
 23 56  1  0  0  0  0
 23108  1  0  0  0  0
 23109  1  0  0  0  0
 24 26  1  0  0  0  0
 24 57  1  0  0  0  0
 24 58  1  0  0  0  0
 25 27  1  0  0  0  0
 25 59  1  0  0  0  0
 25 60  1  0  0  0  0
 26 28  1  0  0  0  0
 26 61  1  0  0  0  0
 26 62  1  0  0  0  0
 27 29  1  0  0  0  0
 27 63  1  0  0  0  0
 27 64  1  0  0  0  0
 28 65  1  0  0  0  0
 28 66  1  0  0  0  0
 29 67  1  0  0  0  0
 29 68  1  0  0  0  0
 30 69  1  0  0  0  0
 30 70  1  0  0  0  0
 30 71  1  0  0  0  0
 33 35  2  0  0  0  0
 33 37  1  0  0  0  0
 34 36  2  0  0  0  0
 34 38  1  0  0  0  0
 35 39  1  0  0  0  0
 35 76  1  0  0  0  0
 36 40  1  0  0  0  0
 36 77  1  0  0  0  0
 37 41  2  0  0  0  0
 37 78  1  0  0  0  0
 38 42  2  0  0  0  0
 38 79  1  0  0  0  0
 39 43  2  0  0  0  0
 39 47  1  0  0  0  0
 40 44  2  0  0  0  0
 40 48  1  0  0  0  0
 41 43  1  0  0  0  0
 41 45  1  0  0  0  0
 42 44  1  0  0  0  0
 42 46  1  0  0  0  0
 43 80  1  0  0  0  0
 44 81  1  0  0  0  0
 45 49  1  0  0  0  0
 46 50  1  0  0  0  0
 47 51  1  0  0  0  0
 48 52  1  0  0  0  0
 49 82  1  0  0  0  0
 49 83  1  0  0  0  0
 49 84  1  0  0  0  0
 50 85  1  0  0  0  0
 50 86  1  0  0  0  0
 50 87  1  0  0  0  0
 51 88  1  0  0  0  0
 51 89  1  0  0  0  0
 51 90  1  0  0  0  0
 52 91  1  0  0  0  0
 52 92  1  0  0  0  0
 52 93  1  0  0  0  0
M  END
> <PUBCHEM_COMPOUND_CID>
49830867

> <PUBCHEM_COMPOUND_CANONICALIZED>
1

> <PUBCHEM_CACTVS_COMPLEXITY>
1340

> <PUBCHEM_CACTVS_HBOND_ACCEPTOR>
11

> <PUBCHEM_CACTVS_HBOND_DONOR>
12

> <PUBCHEM_CACTVS_ROTATABLE_BOND>
18

> <PUBCHEM_CACTVS_SUBSKEYS>
AAADcfB/8AAAAAAAAAAAAAAAAAAAAAAAAAAwYAAAAAAAAAABQAAAHgAYAAAADAjBGAQzwIPAAACoAyRicACCAAAhAgAAiIA4ZJiIIKLA0ZGEIAholgLIyCcQgMAOAAACQAAAAAAAAASAAAAAAAAAAAAAAA==

> <PUBCHEM_IUPAC_OPENEYE_NAME>
1-[3,5-bis(N-guanidino-C-methyl-carbonimidoyl)phenyl]-3-[3-[3-[[3,5-bis(N-guanidino-C-methyl-carbonimidoyl)phenyl]carbamoylamino]propyl-methyl-amino]propyl]urea

> <PUBCHEM_IUPAC_CAS_NAME>
1-[3-[3-[[[3,5-bis[1-(diaminomethylidenehydrazinylidene)ethyl]anilino]-oxomethyl]amino]propyl-methylamino]propyl]-3-[3,5-bis[1-(diaminomethylidenehydrazinylidene)ethyl]phenyl]urea

> <PUBCHEM_IUPAC_NAME_MARKUP>
1-[3,5-bis[<I>N</I>-(diaminomethylideneamino)-<I>C</I>-methylcarbonimidoyl]phenyl]-3-[3-[3-[[3,5-bis[<I>N</I>-(diaminomethylideneamino)-<I>C</I>-methylcarbonimidoyl]phenyl]carbamoylamino]propyl-methylamino]propyl]urea

> <PUBCHEM_IUPAC_NAME>
1-[3,5-bis[N-(diaminomethylideneamino)-C-methylcarbonimidoyl]phenyl]-3-[3-[3-[[3,5-bis[N-(diaminomethylideneamino)-C-methylcarbonimidoyl]phenyl]carbamoylamino]propyl-methylamino]propyl]urea

> <PUBCHEM_IUPAC_SYSTEMATIC_NAME>
1-[3,5-bis[N-[bis(azanyl)methylideneamino]-C-methyl-carbonimidoyl]phenyl]-3-[3-[3-[[3,5-bis[N-[bis(azanyl)methylideneamino]-C-methyl-carbonimidoyl]phenyl]carbamoylamino]propyl-methyl-amino]propyl]urea

> <PUBCHEM_IUPAC_TRADITIONAL_NAME>
1-[3,5-bis(N-guanidino-C-methyl-carbonimidoyl)phenyl]-3-[3-[3-[[3,5-bis(N-guanidino-C-methyl-carbonimidoyl)phenyl]carbamoylamino]propyl-methyl-amino]propyl]urea

> <PUBCHEM_IUPAC_INCHI>
InChI=1S/C33H53N21O2/c1-18(46-50-28(34)35)22-12-23(19(2)47-51-29(36)37)15-26(14-22)44-32(55)42-8-6-10-54(5)11-7-9-43-33(56)45-27-16-24(20(3)48-52-30(38)39)13-25(17-27)21(4)49-53-31(40)41/h12-17H,6-11H2,1-5H3,(H4,34,35,50)(H4,36,37,51)(H4,38,39,52)(H4,40,41,53)(H2,42,44,55)(H2,43,45,56)

> <PUBCHEM_IUPAC_INCHIKEY>
DPRGOXVMSNDADU-UHFFFAOYSA-N

> <PUBCHEM_XLOGP3_AA>
-2.5

> <PUBCHEM_EXACT_MASS>
775.46911002

> <PUBCHEM_MOLECULAR_FORMULA>
C33H53N21O2

> <PUBCHEM_MOLECULAR_WEIGHT>
775.9

> <PUBCHEM_SMILES>
CC(=NN=C(N)N)C1=CC(=CC(=C1)NC(=O)NCCCN(C)CCCNC(=O)NC2=CC(=CC(=C2)C(=NN=C(N)N)C)C(=NN=C(N)N)C)C(=NN=C(N)N)C

> <PUBCHEM_OPENEYE_CAN_SMILES>
CC(=NN=C(N)N)C1=CC(=CC(=C1)NC(=O)NCCCN(C)CCCNC(=O)NC2=CC(=CC(=C2)C(=NN=C(N)N)C)C(=NN=C(N)N)C)C(=NN=C(N)N)C

> <PUBCHEM_OPENEYE_ISO_SMILES>
CC(=NN=C(N)N)C1=CC(=CC(=C1)NC(=O)NCCCN(C)CCCNC(=O)NC2=CC(=CC(=C2)C(=NN=C(N)N)C)C(=NN=C(N)N)C)C(=NN=C(N)N)C

> <PUBCHEM_CACTVS_TPSA>
393

> <PUBCHEM_MONOISOTOPIC_WEIGHT>
775.46911002

> <PUBCHEM_TOTAL_CHARGE>
0

> <PUBCHEM_HEAVY_ATOM_COUNT>
56

> <PUBCHEM_ATOM_DEF_STEREO_COUNT>
0

> <PUBCHEM_ATOM_UDEF_STEREO_COUNT>
0

> <PUBCHEM_BOND_DEF_STEREO_COUNT>
0

> <PUBCHEM_BOND_UDEF_STEREO_COUNT>
4

> <PUBCHEM_ISOTOPIC_ATOM_COUNT>
0

> <PUBCHEM_COMPONENT_COUNT>
1

> <PUBCHEM_CACTVS_TAUTO_COUNT>
-1

> <PUBCHEM_COORDINATE_TYPE>
1
5
255

> <PUBCHEM_BONDANNOTATIONS>
10  47  1
11  48  1
33  35  8
33  37  8
34  36  8
34  38  8
35  39  8
36  40  8
37  41  8
38  42  8
39  43  8
40  44  8
41  43  8
42  44  8
8  45  1
9  46  1

$$$$
