52945752
  -OEChem-03202500082D

 51 55  0     0  0  0  0  0  0999 V2000
    2.0000   -1.4631    0.0000 O   0  0  0  0  0  0  0  0  0  0  0  0
    6.3301   -2.9631    0.0000 O   0  0  0  0  0  0  0  0  0  0  0  0
    3.7320   -2.4631    0.0000 N   0  0  0  0  0  0  0  0  0  0  0  0
   11.5263   -0.9631    0.0000 N   0  0  0  0  0  0  0  0  0  0  0  0
   10.6603    0.5369    0.0000 N   0  0  0  0  0  0  0  0  0  0  0  0
   12.4725   -1.2678    0.0000 N   0  0  0  0  0  0  0  0  0  0  0  0
   13.7365    2.5995    0.0000 N   0  0  0  0  0  0  0  0  0  0  0  0
   12.7860    2.9102    0.0000 N   0  0  0  0  0  0  0  0  0  0  0  0
    2.8660   -2.9631    0.0000 C   0  0  0  0  0  0  0  0  0  0  0  0
    3.7320   -1.4631    0.0000 C   0  0  0  0  0  0  0  0  0  0  0  0
    4.5981   -2.9631    0.0000 C   0  0  0  0  0  0  0  0  0  0  0  0
    2.0000   -2.4631    0.0000 C   0  0  0  0  0  0  0  0  0  0  0  0
    2.8660   -0.9631    0.0000 C   0  0  0  0  0  0  0  0  0  0  0  0
    5.4641   -2.4631    0.0000 C   0  0  0  0  0  0  0  0  0  0  0  0
    7.1962   -2.4631    0.0000 C   0  0  0  0  0  0  0  0  0  0  0  0
    8.9282   -1.4631    0.0000 C   0  0  0  0  0  0  0  0  0  0  0  0
    9.7942   -0.9631    0.0000 C   0  0  0  0  0  0  0  0  0  0  0  0
   11.5263    0.0369    0.0000 C   0  0  0  0  0  0  0  0  0  0  0  0
   12.4725    0.3416    0.0000 C   0  0  0  0  0  0  0  0  0  0  0  0
   10.6603   -1.4631    0.0000 C   0  0  0  0  0  0  0  0  0  0  0  0
    8.0622   -2.9631    0.0000 C   0  0  0  0  0  0  0  0  0  0  0  0
    7.1962   -1.4631    0.0000 C   0  0  0  0  0  0  0  0  0  0  0  0
    8.9282   -2.4631    0.0000 C   0  0  0  0  0  0  0  0  0  0  0  0
    8.0622   -0.9631    0.0000 C   0  0  0  0  0  0  0  0  0  0  0  0
    9.7942    0.0369    0.0000 C   0  0  0  0  0  0  0  0  0  0  0  0
   12.7832    1.2922    0.0000 C   0  0  0  0  0  0  0  0  0  0  0  0
   13.0561   -0.4631    0.0000 C   0  0  0  0  0  0  0  0  0  0  0  0
   13.7348    1.5995    0.0000 C   0  0  0  0  0  0  0  0  0  0  0  0
   12.1968    2.1022    0.0000 C   0  0  0  0  0  0  0  0  0  0  0  0
    2.4675   -3.4380    0.0000 H   0  0  0  0  0  0  0  0  0  0  0  0
    3.2646   -3.4380    0.0000 H   0  0  0  0  0  0  0  0  0  0  0  0
    4.3426   -1.5708    0.0000 H   0  0  0  0  0  0  0  0  0  0  0  0
    3.9441   -0.8805    0.0000 H   0  0  0  0  0  0  0  0  0  0  0  0
    4.1996   -3.4380    0.0000 H   0  0  0  0  0  0  0  0  0  0  0  0
    4.9966   -3.4380    0.0000 H   0  0  0  0  0  0  0  0  0  0  0  0
    1.3894   -2.3554    0.0000 H   0  0  0  0  0  0  0  0  0  0  0  0
    1.7880   -3.0457    0.0000 H   0  0  0  0  0  0  0  0  0  0  0  0
    3.2646   -0.4881    0.0000 H   0  0  0  0  0  0  0  0  0  0  0  0
    2.4675   -0.4881    0.0000 H   0  0  0  0  0  0  0  0  0  0  0  0
    5.8626   -1.9881    0.0000 H   0  0  0  0  0  0  0  0  0  0  0  0
    5.0656   -1.9881    0.0000 H   0  0  0  0  0  0  0  0  0  0  0  0
   10.6603   -2.0831    0.0000 H   0  0  0  0  0  0  0  0  0  0  0  0
    8.0622   -3.5831    0.0000 H   0  0  0  0  0  0  0  0  0  0  0  0
    6.6592   -1.1531    0.0000 H   0  0  0  0  0  0  0  0  0  0  0  0
    9.4651   -2.7731    0.0000 H   0  0  0  0  0  0  0  0  0  0  0  0
    8.0622   -0.3431    0.0000 H   0  0  0  0  0  0  0  0  0  0  0  0
    9.2573    0.3469    0.0000 H   0  0  0  0  0  0  0  0  0  0  0  0
   13.6761   -0.4631    0.0000 H   0  0  0  0  0  0  0  0  0  0  0  0
   14.2357    1.2342    0.0000 H   0  0  0  0  0  0  0  0  0  0  0  0
   11.5768    2.1033    0.0000 H   0  0  0  0  0  0  0  0  0  0  0  0
   14.2387    2.9631    0.0000 H   0  0  0  0  0  0  0  0  0  0  0  0
  1 12  1  0  0  0  0
  1 13  1  0  0  0  0
  2 14  1  0  0  0  0
  2 15  1  0  0  0  0
  3  9  1  0  0  0  0
  3 10  1  0  0  0  0
  3 11  1  0  0  0  0
  4  6  1  0  0  0  0
  4 18  1  0  0  0  0
  4 20  1  0  0  0  0
  5 18  1  0  0  0  0
  5 25  2  0  0  0  0
  6 27  2  0  0  0  0
  7  8  1  0  0  0  0
  7 28  1  0  0  0  0
  7 51  1  0  0  0  0
  8 29  2  0  0  0  0
  9 12  1  0  0  0  0
  9 30  1  0  0  0  0
  9 31  1  0  0  0  0
 10 13  1  0  0  0  0
 10 32  1  0  0  0  0
 10 33  1  0  0  0  0
 11 14  1  0  0  0  0
 11 34  1  0  0  0  0
 11 35  1  0  0  0  0
 12 36  1  0  0  0  0
 12 37  1  0  0  0  0
 13 38  1  0  0  0  0
 13 39  1  0  0  0  0
 14 40  1  0  0  0  0
 14 41  1  0  0  0  0
 15 21  2  0  0  0  0
 15 22  1  0  0  0  0
 16 17  1  0  0  0  0
 16 23  2  0  0  0  0
 16 24  1  0  0  0  0
 17 20  2  0  0  0  0
 17 25  1  0  0  0  0
 18 19  2  0  0  0  0
 19 26  1  0  0  0  0
 19 27  1  0  0  0  0
 20 42  1  0  0  0  0
 21 23  1  0  0  0  0
 21 43  1  0  0  0  0
 22 24  2  0  0  0  0
 22 44  1  0  0  0  0
 23 45  1  0  0  0  0
 24 46  1  0  0  0  0
 25 47  1  0  0  0  0
 26 28  2  0  0  0  0
 26 29  1  0  0  0  0
 27 48  1  0  0  0  0
 28 49  1  0  0  0  0
 29 50  1  0  0  0  0
M  END
> <PUBCHEM_COMPOUND_CID>
52945752

> <PUBCHEM_COMPOUND_CANONICALIZED>
1

> <PUBCHEM_CACTVS_COMPLEXITY>
511

> <PUBCHEM_CACTVS_HBOND_ACCEPTOR>
6

> <PUBCHEM_CACTVS_HBOND_DONOR>
1

> <PUBCHEM_CACTVS_ROTATABLE_BOND>
6

> <PUBCHEM_CACTVS_SUBSKEYS>
AAADceB7sAAAAAAAAAAAAAAAAAAAAWLAAAA8WIAAAAAAAFgB/AAAHgAYAAAADAThmwY9tp9rFACiAjJnZACSjCsxoKAd+aAuTJiOLuLE+VuHvCisyBPY6CeQwNAOoAAAAAAAAABAAAAAAAAAAAAAAAAAAA==

> <PUBCHEM_IUPAC_OPENEYE_NAME>
4-[2-[4-[3-(1H-pyrazol-4-yl)pyrazolo[1,5-a]pyrimidin-6-yl]phenoxy]ethyl]morpholine

> <PUBCHEM_IUPAC_CAS_NAME>
4-[2-[4-[3-(1H-pyrazol-4-yl)-6-pyrazolo[1,5-a]pyrimidinyl]phenoxy]ethyl]morpholine

> <PUBCHEM_IUPAC_NAME_MARKUP>
4-[2-[4-[3-(1<I>H</I>-pyrazol-4-yl)pyrazolo[1,5-a]pyrimidin-6-yl]phenoxy]ethyl]morpholine

> <PUBCHEM_IUPAC_NAME>
4-[2-[4-[3-(1H-pyrazol-4-yl)pyrazolo[1,5-a]pyrimidin-6-yl]phenoxy]ethyl]morpholine

> <PUBCHEM_IUPAC_SYSTEMATIC_NAME>
4-[2-[4-[3-(1H-pyrazol-4-yl)pyrazolo[1,5-a]pyrimidin-6-yl]phenoxy]ethyl]morpholine

> <PUBCHEM_IUPAC_TRADITIONAL_NAME>
4-[2-[4-[3-(1H-pyrazol-4-yl)pyrazolo[1,5-a]pyrimidin-6-yl]phenoxy]ethyl]morpholine

> <PUBCHEM_IUPAC_INCHI>
InChI=1S/C21H22N6O2/c1-3-19(29-10-7-26-5-8-28-9-6-26)4-2-16(1)18-11-22-21-20(14-25-27(21)15-18)17-12-23-24-13-17/h1-4,11-15H,5-10H2,(H,23,24)

> <PUBCHEM_IUPAC_INCHIKEY>
JRKYKAKARRYSSS-UHFFFAOYSA-N

> <PUBCHEM_XLOGP3_AA>
1.5

> <PUBCHEM_EXACT_MASS>
390.18042397

> <PUBCHEM_MOLECULAR_FORMULA>
C21H22N6O2

> <PUBCHEM_MOLECULAR_WEIGHT>
390.4

> <PUBCHEM_SMILES>
C1COCCN1CCOC2=CC=C(C=C2)C3=CN4C(=C(C=N4)C5=CNN=C5)N=C3

> <PUBCHEM_OPENEYE_CAN_SMILES>
C1COCCN1CCOC2=CC=C(C=C2)C3=CN4C(=C(C=N4)C5=CNN=C5)N=C3

> <PUBCHEM_OPENEYE_ISO_SMILES>
C1COCCN1CCOC2=CC=C(C=C2)C3=CN4C(=C(C=N4)C5=CNN=C5)N=C3

> <PUBCHEM_CACTVS_TPSA>
80.6

> <PUBCHEM_MONOISOTOPIC_WEIGHT>
390.18042397

> <PUBCHEM_TOTAL_CHARGE>
0

> <PUBCHEM_HEAVY_ATOM_COUNT>
29

> <PUBCHEM_ATOM_DEF_STEREO_COUNT>
0

> <PUBCHEM_ATOM_UDEF_STEREO_COUNT>
0

> <PUBCHEM_BOND_DEF_STEREO_COUNT>
0

> <PUBCHEM_BOND_UDEF_STEREO_COUNT>
0

> <PUBCHEM_ISOTOPIC_ATOM_COUNT>
0

> <PUBCHEM_COMPONENT_COUNT>
1

> <PUBCHEM_CACTVS_TAUTO_COUNT>
-1

> <PUBCHEM_COORDINATE_TYPE>
1
5
255

> <PUBCHEM_BONDANNOTATIONS>
15  21  8
15  22  8
16  23  8
16  24  8
17  20  8
17  25  8
18  19  8
19  27  8
21  23  8
22  24  8
26  28  8
26  29  8
4  18  8
4  20  8
4  6  8
5  18  8
5  25  8
6  27  8
7  28  8
7  8  8
8  29  8

$$$$
