24772168
  -OEChem-03202502142D

 31 33  0     0  0  0  0  0  0999 V2000
    6.3981   -0.2327    0.0000 O   0  0  0  0  0  0  0  0  0  0  0  0
    4.6660   -0.2327    0.0000 N   0  0  0  0  0  0  0  0  0  0  0  0
    4.6660   -3.2327    0.0000 N   0  0  0  0  0  0  0  0  0  0  0  0
    5.5321    1.2673    0.0000 N   0  0  0  0  0  0  0  0  0  0  0  0
    6.3981    2.7673    0.0000 N   0  0  0  0  0  0  0  0  0  0  0  0
    8.1301    1.7673    0.0000 N   0  0  0  0  0  0  0  0  0  0  0  0
    3.8000   -1.7327    0.0000 C   0  0  0  0  0  0  0  0  0  0  0  0
    4.6660   -1.2327    0.0000 C   0  0  0  0  0  0  0  0  0  0  0  0
    3.8000   -2.7327    0.0000 C   0  0  0  0  0  0  0  0  0  0  0  0
    2.9061   -1.1980    0.0000 C   0  0  0  0  0  0  0  0  0  0  0  0
    5.5321   -1.7327    0.0000 C   0  0  0  0  0  0  0  0  0  0  0  0
    2.9061   -3.2673    0.0000 C   0  0  0  0  0  0  0  0  0  0  0  0
    2.0000   -1.7118    0.0000 C   0  0  0  0  0  0  0  0  0  0  0  0
    2.0000   -2.7535    0.0000 C   0  0  0  0  0  0  0  0  0  0  0  0
    5.5321   -2.7327    0.0000 C   0  0  0  0  0  0  0  0  0  0  0  0
    5.5321    0.2673    0.0000 C   0  0  0  0  0  0  0  0  0  0  0  0
    6.3981    1.7673    0.0000 C   0  0  0  0  0  0  0  0  0  0  0  0
    7.2641    1.2673    0.0000 C   0  0  0  0  0  0  0  0  0  0  0  0
    7.2641    3.2673    0.0000 C   0  0  0  0  0  0  0  0  0  0  0  0
    8.1301    2.7673    0.0000 C   0  0  0  0  0  0  0  0  0  0  0  0
    2.9132   -0.5780    0.0000 H   0  0  0  0  0  0  0  0  0  0  0  0
    6.0690   -1.4227    0.0000 H   0  0  0  0  0  0  0  0  0  0  0  0
    4.1291    0.0773    0.0000 H   0  0  0  0  0  0  0  0  0  0  0  0
    2.9132   -3.8873    0.0000 H   0  0  0  0  0  0  0  0  0  0  0  0
    1.4643   -1.3998    0.0000 H   0  0  0  0  0  0  0  0  0  0  0  0
    6.0690   -3.0427    0.0000 H   0  0  0  0  0  0  0  0  0  0  0  0
    1.4643   -3.0656    0.0000 H   0  0  0  0  0  0  0  0  0  0  0  0
    4.9951    1.5773    0.0000 H   0  0  0  0  0  0  0  0  0  0  0  0
    7.2641    0.6473    0.0000 H   0  0  0  0  0  0  0  0  0  0  0  0
    7.2641    3.8873    0.0000 H   0  0  0  0  0  0  0  0  0  0  0  0
    8.6671    3.0773    0.0000 H   0  0  0  0  0  0  0  0  0  0  0  0
  1 16  2  0  0  0  0
  2  8  1  0  0  0  0
  2 16  1  0  0  0  0
  2 23  1  0  0  0  0
  3  9  1  0  0  0  0
  3 15  2  0  0  0  0
  4 16  1  0  0  0  0
  4 17  1  0  0  0  0
  4 28  1  0  0  0  0
  5 17  2  0  0  0  0
  5 19  1  0  0  0  0
  6 18  2  0  0  0  0
  6 20  1  0  0  0  0
  7  8  1  0  0  0  0
  7  9  1  0  0  0  0
  7 10  2  0  0  0  0
  8 11  2  0  0  0  0
  9 12  2  0  0  0  0
 10 13  1  0  0  0  0
 10 21  1  0  0  0  0
 11 15  1  0  0  0  0
 11 22  1  0  0  0  0
 12 14  1  0  0  0  0
 12 24  1  0  0  0  0
 13 14  2  0  0  0  0
 13 25  1  0  0  0  0
 14 27  1  0  0  0  0
 15 26  1  0  0  0  0
 17 18  1  0  0  0  0
 18 29  1  0  0  0  0
 19 20  2  0  0  0  0
 19 30  1  0  0  0  0
 20 31  1  0  0  0  0
M  END
> <PUBCHEM_COMPOUND_CID>
24772168

> <PUBCHEM_COMPOUND_CANONICALIZED>
1

> <PUBCHEM_CACTVS_COMPLEXITY>
338

> <PUBCHEM_CACTVS_HBOND_ACCEPTOR>
4

> <PUBCHEM_CACTVS_HBOND_DONOR>
2

> <PUBCHEM_CACTVS_ROTATABLE_BOND>
2

> <PUBCHEM_CACTVS_SUBSKEYS>
AAADccBzoAAAAAAAAAAAAAAAAAAAAAAAAAA8WIAAAAAAAACx/AAAHgAQAAAADAjBHgQ98PLIEACoAzZndACCgC0xEiAJ2CA4dJiIYOLA0dGUJAholQLIyCcQgIAOAAAAAAACAAAAAAAAAAQAAAAAAAAAAA==

> <PUBCHEM_IUPAC_OPENEYE_NAME>
1-pyrazin-2-yl-3-(4-quinolyl)urea

> <PUBCHEM_IUPAC_CAS_NAME>
1-(2-pyrazinyl)-3-(4-quinolinyl)urea

> <PUBCHEM_IUPAC_NAME_MARKUP>
1-pyrazin-2-yl-3-quinolin-4-ylurea

> <PUBCHEM_IUPAC_NAME>
1-pyrazin-2-yl-3-quinolin-4-ylurea

> <PUBCHEM_IUPAC_SYSTEMATIC_NAME>
1-pyrazin-2-yl-3-quinolin-4-yl-urea

> <PUBCHEM_IUPAC_TRADITIONAL_NAME>
1-pyrazin-2-yl-3-(4-quinolyl)urea

> <PUBCHEM_IUPAC_INCHI>
InChI=1S/C14H11N5O/c20-14(19-13-9-15-7-8-17-13)18-12-5-6-16-11-4-2-1-3-10(11)12/h1-9H,(H2,16,17,18,19,20)

> <PUBCHEM_IUPAC_INCHIKEY>
LNIDFQVRZCDVBI-UHFFFAOYSA-N

> <PUBCHEM_XLOGP3_AA>
0.9

> <PUBCHEM_EXACT_MASS>
265.09635999

> <PUBCHEM_MOLECULAR_FORMULA>
C14H11N5O

> <PUBCHEM_MOLECULAR_WEIGHT>
265.27

> <PUBCHEM_SMILES>
C1=CC=C2C(=C1)C(=CC=N2)NC(=O)NC3=NC=CN=C3

> <PUBCHEM_OPENEYE_CAN_SMILES>
C1=CC=C2C(=C1)C(=CC=N2)NC(=O)NC3=NC=CN=C3

> <PUBCHEM_OPENEYE_ISO_SMILES>
C1=CC=C2C(=C1)C(=CC=N2)NC(=O)NC3=NC=CN=C3

> <PUBCHEM_CACTVS_TPSA>
79.8

> <PUBCHEM_MONOISOTOPIC_WEIGHT>
265.09635999

> <PUBCHEM_TOTAL_CHARGE>
0

> <PUBCHEM_HEAVY_ATOM_COUNT>
20

> <PUBCHEM_ATOM_DEF_STEREO_COUNT>
0

> <PUBCHEM_ATOM_UDEF_STEREO_COUNT>
0

> <PUBCHEM_BOND_DEF_STEREO_COUNT>
0

> <PUBCHEM_BOND_UDEF_STEREO_COUNT>
0

> <PUBCHEM_ISOTOPIC_ATOM_COUNT>
0

> <PUBCHEM_COMPONENT_COUNT>
1

> <PUBCHEM_CACTVS_TAUTO_COUNT>
-1

> <PUBCHEM_COORDINATE_TYPE>
1
5
255

> <PUBCHEM_BONDANNOTATIONS>
10  13  8
11  15  8
12  14  8
13  14  8
17  18  8
19  20  8
3  15  8
3  9  8
5  17  8
5  19  8
6  18  8
6  20  8
7  10  8
7  8  8
7  9  8
8  11  8
9  12  8

$$$$
