9823787
  -OEChem-03202506292D

 58 63  0     0  0  0  0  0  0999 V2000
    8.7649    0.3369    0.0000 O   0  0  0  0  0  0  0  0  0  0  0  0
    6.6951    3.7784    0.0000 O   0  0  0  0  0  0  0  0  0  0  0  0
    2.4141   -2.9173    0.0000 O   0  0  0  0  0  0  0  0  0  0  0  0
    5.0389   -2.5854    0.0000 N   0  0  0  0  0  0  0  0  0  0  0  0
    9.0378   -1.4183    0.0000 N   0  0  0  0  0  0  0  0  0  0  0  0
    5.7759   -0.9183    0.0000 C   0  0  0  0  0  0  0  0  0  0  0  0
    5.7759   -1.9183    0.0000 C   0  0  0  0  0  0  0  0  0  0  0  0
    6.6420   -2.4183    0.0000 C   0  0  0  0  0  0  0  0  0  0  0  0
    6.6420   -0.4183    0.0000 C   0  0  0  0  0  0  0  0  0  0  0  0
    7.5080   -1.9183    0.0000 C   0  0  0  0  0  0  0  0  0  0  0  0
    7.5080   -0.9183    0.0000 C   0  0  0  0  0  0  0  0  0  0  0  0
    4.8659   -0.4115    0.0000 C   0  0  0  0  0  0  0  0  0  0  0  0
    6.4328   -3.3901    0.0000 C   0  0  0  0  0  0  0  0  0  0  0  0
    4.8579    0.6301    0.0000 C   0  0  0  0  0  0  0  0  0  0  0  0
    6.6580    0.6232    0.0000 C   0  0  0  0  0  0  0  0  0  0  0  0
    5.4440   -3.4932    0.0000 C   0  0  0  0  0  0  0  0  0  0  0  0
    8.4542   -2.2231    0.0000 C   0  0  0  0  0  0  0  0  0  0  0  0
    5.7600    1.1509    0.0000 C   0  0  0  0  0  0  0  0  0  0  0  0
    8.4542   -0.6136    0.0000 C   0  0  0  0  0  0  0  0  0  0  0  0
    4.0604   -2.3792    0.0000 C   0  0  0  0  0  0  0  0  0  0  0  0
    7.0535   -4.2189    0.0000 C   0  0  0  0  0  0  0  0  0  0  0  0
    7.6100    1.1438    0.0000 C   0  0  0  0  0  0  0  0  0  0  0  0
    5.0075   -4.4322    0.0000 C   0  0  0  0  0  0  0  0  0  0  0  0
    5.7516    2.2359    0.0000 C   0  0  0  0  0  0  0  0  0  0  0  0
    3.3926   -3.1235    0.0000 C   0  0  0  0  0  0  0  0  0  0  0  0
    6.6912    2.7784    0.0000 C   0  0  0  0  0  0  0  0  0  0  0  0
    7.6267    2.2287    0.0000 C   0  0  0  0  0  0  0  0  0  0  0  0
    6.6388   -5.1677    0.0000 C   0  0  0  0  0  0  0  0  0  0  0  0
    5.6090   -5.2750    0.0000 C   0  0  0  0  0  0  0  0  0  0  0  0
    7.5630    4.2750    0.0000 C   0  0  0  0  0  0  0  0  0  0  0  0
    7.5669    5.2750    0.0000 C   0  0  0  0  0  0  0  0  0  0  0  0
    8.4271    3.7717    0.0000 C   0  0  0  0  0  0  0  0  0  0  0  0
    4.2543   -0.3101    0.0000 H   0  0  0  0  0  0  0  0  0  0  0  0
    4.6614   -0.9968    0.0000 H   0  0  0  0  0  0  0  0  0  0  0  0
    4.6444    1.2122    0.0000 H   0  0  0  0  0  0  0  0  0  0  0  0
    4.2479    0.5193    0.0000 H   0  0  0  0  0  0  0  0  0  0  0  0
    8.2032   -2.7900    0.0000 H   0  0  0  0  0  0  0  0  0  0  0  0
    8.9916   -2.5323    0.0000 H   0  0  0  0  0  0  0  0  0  0  0  0
    4.2917   -1.8039    0.0000 H   0  0  0  0  0  0  0  0  0  0  0  0
    3.5340   -2.0515    0.0000 H   0  0  0  0  0  0  0  0  0  0  0  0
    9.6578   -1.4183    0.0000 H   0  0  0  0  0  0  0  0  0  0  0  0
    7.6694   -4.1475    0.0000 H   0  0  0  0  0  0  0  0  0  0  0  0
    8.1408    0.8235    0.0000 H   0  0  0  0  0  0  0  0  0  0  0  0
    4.3902   -4.4893    0.0000 H   0  0  0  0  0  0  0  0  0  0  0  0
    5.2135    2.5438    0.0000 H   0  0  0  0  0  0  0  0  0  0  0  0
    3.1613   -3.6987    0.0000 H   0  0  0  0  0  0  0  0  0  0  0  0
    3.9189   -3.4511    0.0000 H   0  0  0  0  0  0  0  0  0  0  0  0
    8.1672    2.5324    0.0000 H   0  0  0  0  0  0  0  0  0  0  0  0
    7.0048   -5.6682    0.0000 H   0  0  0  0  0  0  0  0  0  0  0  0
    5.3541   -5.8402    0.0000 H   0  0  0  0  0  0  0  0  0  0  0  0
    7.5607    3.6551    0.0000 H   0  0  0  0  0  0  0  0  0  0  0  0
    2.0000   -3.3787    0.0000 H   0  0  0  0  0  0  0  0  0  0  0  0
    8.1869    5.2727    0.0000 H   0  0  0  0  0  0  0  0  0  0  0  0
    7.5693    5.8950    0.0000 H   0  0  0  0  0  0  0  0  0  0  0  0
    6.9469    5.2774    0.0000 H   0  0  0  0  0  0  0  0  0  0  0  0
    8.1151    3.2360    0.0000 H   0  0  0  0  0  0  0  0  0  0  0  0
    8.9629    3.4596    0.0000 H   0  0  0  0  0  0  0  0  0  0  0  0
    8.7392    4.3075    0.0000 H   0  0  0  0  0  0  0  0  0  0  0  0
  1 19  2  0  0  0  0
  2 26  1  0  0  0  0
  2 30  1  0  0  0  0
  3 25  1  0  0  0  0
  3 52  1  0  0  0  0
  4  7  1  0  0  0  0
  4 16  1  0  0  0  0
  4 20  1  0  0  0  0
  5 17  1  0  0  0  0
  5 19  1  0  0  0  0
  5 41  1  0  0  0  0
  6  7  1  0  0  0  0
  6  9  2  0  0  0  0
  6 12  1  0  0  0  0
  7  8  2  0  0  0  0
  8 10  1  0  0  0  0
  8 13  1  0  0  0  0
  9 11  1  0  0  0  0
  9 15  1  0  0  0  0
 10 11  2  0  0  0  0
 10 17  1  0  0  0  0
 11 19  1  0  0  0  0
 12 14  1  0  0  0  0
 12 33  1  0  0  0  0
 12 34  1  0  0  0  0
 13 16  1  0  0  0  0
 13 21  2  0  0  0  0
 14 18  1  0  0  0  0
 14 35  1  0  0  0  0
 14 36  1  0  0  0  0
 15 18  2  0  0  0  0
 15 22  1  0  0  0  0
 16 23  2  0  0  0  0
 17 37  1  0  0  0  0
 17 38  1  0  0  0  0
 18 24  1  0  0  0  0
 20 25  1  0  0  0  0
 20 39  1  0  0  0  0
 20 40  1  0  0  0  0
 21 28  1  0  0  0  0
 21 42  1  0  0  0  0
 22 27  2  0  0  0  0
 22 43  1  0  0  0  0
 23 29  1  0  0  0  0
 23 44  1  0  0  0  0
 24 26  2  0  0  0  0
 24 45  1  0  0  0  0
 25 46  1  0  0  0  0
 25 47  1  0  0  0  0
 26 27  1  0  0  0  0
 27 48  1  0  0  0  0
 28 29  2  0  0  0  0
 28 49  1  0  0  0  0
 29 50  1  0  0  0  0
 30 31  1  0  0  0  0
 30 32  1  0  0  0  0
 30 51  1  0  0  0  0
 31 53  1  0  0  0  0
 31 54  1  0  0  0  0
 31 55  1  0  0  0  0
 32 56  1  0  0  0  0
 32 57  1  0  0  0  0
 32 58  1  0  0  0  0
M  END
> <PUBCHEM_COMPOUND_CID>
9823787

> <PUBCHEM_COMPOUND_CANONICALIZED>
1

> <PUBCHEM_CACTVS_COMPLEXITY>
713

> <PUBCHEM_CACTVS_HBOND_ACCEPTOR>
3

> <PUBCHEM_CACTVS_HBOND_DONOR>
2

> <PUBCHEM_CACTVS_ROTATABLE_BOND>
4

> <PUBCHEM_CACTVS_SUBSKEYS>
AAADceB7MAAAAAAAAAAAAAAAAAAAAWLAAAAwYMGAAAAAAFjB/AAAHgAQCAAADBzhngYyxvPMFgCoAyVyVACCiCAlIiAI2KE+bNgONvLEtZuGOSjkxhHY6QecyfCe6AADQAASAADQAAaAACQAAAAAAAAAAA==

> <PUBCHEM_IUPAC_OPENEYE_NAME>
3-(2-hydroxyethyl)-20-isopropoxy-3,13-diazahexacyclo[14.8.0.02,10.04,9.011,15.017,22]tetracosa-1(16),2(10),4,6,8,11(15),17(22),18,20-nonaen-14-one

> <PUBCHEM_IUPAC_CAS_NAME>
3-(2-hydroxyethyl)-20-propan-2-yloxy-3,13-diazahexacyclo[14.8.0.02,10.04,9.011,15.017,22]tetracosa-1(16),2(10),4,6,8,11(15),17(22),18,20-nonaen-14-one

> <PUBCHEM_IUPAC_NAME_MARKUP>
3-(2-hydroxyethyl)-20-propan-2-yloxy-3,13-diazahexacyclo[14.8.0.0<SUP>2,10</SUP>.0<SUP>4,9</SUP>.0<SUP>11,15</SUP>.0<SUP>17,22</SUP>]tetracosa-1(16),2(10),4,6,8,11(15),17(22),18,20-nonaen-14-one

> <PUBCHEM_IUPAC_NAME>
3-(2-hydroxyethyl)-20-propan-2-yloxy-3,13-diazahexacyclo[14.8.0.02,10.04,9.011,15.017,22]tetracosa-1(16),2(10),4,6,8,11(15),17(22),18,20-nonaen-14-one

> <PUBCHEM_IUPAC_SYSTEMATIC_NAME>
3-(2-hydroxyethyl)-20-propan-2-yloxy-3,13-diazahexacyclo[14.8.0.02,10.04,9.011,15.017,22]tetracosa-1(16),2(10),4,6,8,11(15),17(22),18,20-nonaen-14-one

> <PUBCHEM_IUPAC_TRADITIONAL_NAME>
3-(2-hydroxyethyl)-20-isopropoxy-3,13-diazahexacyclo[14.8.0.02,10.04,9.011,15.017,22]tetracosa-1(16),2(10),4,6,8,11(15),17(22),18,20-nonaen-14-one

> <PUBCHEM_IUPAC_INCHI>
InChI=1S/C27H26N2O3/c1-15(2)32-17-8-10-18-16(13-17)7-9-20-23(18)25-21(14-28-27(25)31)24-19-5-3-4-6-22(19)29(11-12-30)26(20)24/h3-6,8,10,13,15,30H,7,9,11-12,14H2,1-2H3,(H,28,31)

> <PUBCHEM_IUPAC_INCHIKEY>
HSWWFIPPMAFLPH-UHFFFAOYSA-N

> <PUBCHEM_XLOGP3_AA>
4.1

> <PUBCHEM_EXACT_MASS>
426.19434270

> <PUBCHEM_MOLECULAR_FORMULA>
C27H26N2O3

> <PUBCHEM_MOLECULAR_WEIGHT>
426.5

> <PUBCHEM_SMILES>
CC(C)OC1=CC2=C(C=C1)C3=C(CC2)C4=C(C5=C3C(=O)NC5)C6=CC=CC=C6N4CCO

> <PUBCHEM_OPENEYE_CAN_SMILES>
CC(C)OC1=CC2=C(C=C1)C3=C(CC2)C4=C(C5=C3C(=O)NC5)C6=CC=CC=C6N4CCO

> <PUBCHEM_OPENEYE_ISO_SMILES>
CC(C)OC1=CC2=C(C=C1)C3=C(CC2)C4=C(C5=C3C(=O)NC5)C6=CC=CC=C6N4CCO

> <PUBCHEM_CACTVS_TPSA>
63.5

> <PUBCHEM_MONOISOTOPIC_WEIGHT>
426.19434270

> <PUBCHEM_TOTAL_CHARGE>
0

> <PUBCHEM_HEAVY_ATOM_COUNT>
32

> <PUBCHEM_ATOM_DEF_STEREO_COUNT>
0

> <PUBCHEM_ATOM_UDEF_STEREO_COUNT>
0

> <PUBCHEM_BOND_DEF_STEREO_COUNT>
0

> <PUBCHEM_BOND_UDEF_STEREO_COUNT>
0

> <PUBCHEM_ISOTOPIC_ATOM_COUNT>
0

> <PUBCHEM_COMPONENT_COUNT>
1

> <PUBCHEM_CACTVS_TAUTO_COUNT>
-1

> <PUBCHEM_COORDINATE_TYPE>
1
5
255

> <PUBCHEM_BONDANNOTATIONS>
10  11  8
13  16  8
13  21  8
15  18  8
15  22  8
16  23  8
18  24  8
21  28  8
22  27  8
23  29  8
24  26  8
26  27  8
28  29  8
4  16  8
4  7  8
6  7  8
6  9  8
7  8  8
8  10  8
8  13  8
9  11  8

$$$$
