23740938
  -OEChem-03202503102D

 56 61  0     1  0  0  0  0  0999 V2000
    2.0000    5.5984    0.0000 F   0  0  0  0  0  0  0  0  0  0  0  0
    6.3301    4.0984    0.0000 O   0  0  0  0  0  0  0  0  0  0  0  0
    8.0622   -0.9016    0.0000 N   0  0  0  0  0  0  0  0  0  0  0  0
    5.4641    2.5984    0.0000 N   0  0  0  0  0  0  0  0  0  0  0  0
    6.3301   -0.9016    0.0000 C   0  0  3  0  0  0  0  0  0  0  0  0
    6.3301   -1.9016    0.0000 C   0  0  3  0  0  0  0  0  0  0  0  0
    7.1962   -0.4016    0.0000 C   0  0  3  0  0  0  0  0  0  0  0  0
    5.3839   -0.5969    0.0000 C   0  0  0  0  0  0  0  0  0  0  0  0
    7.1962   -2.4016    0.0000 C   0  0  0  0  0  0  0  0  0  0  0  0
    5.3839   -2.2064    0.0000 C   0  0  0  0  0  0  0  0  0  0  0  0
    8.0622   -1.9016    0.0000 C   0  0  0  0  0  0  0  0  0  0  0  0
    4.8003   -1.4016    0.0000 C   0  0  0  0  0  0  0  0  0  0  0  0
    7.1962    0.5984    0.0000 C   0  0  0  0  0  0  0  0  0  0  0  0
    7.1801   -3.4432    0.0000 C   0  0  0  0  0  0  0  0  0  0  0  0
    8.9722   -2.4085    0.0000 C   0  0  0  0  0  0  0  0  0  0  0  0
    8.0781   -3.9709    0.0000 C   0  0  0  0  0  0  0  0  0  0  0  0
    6.3301    1.0984    0.0000 C   0  0  0  0  0  0  0  0  0  0  0  0
    8.0622    1.0984    0.0000 C   0  0  0  0  0  0  0  0  0  0  0  0
    8.9802   -3.4501    0.0000 C   0  0  0  0  0  0  0  0  0  0  0  0
    6.2282   -3.9638    0.0000 C   0  0  0  0  0  0  0  0  0  0  0  0
    8.0865   -5.0559    0.0000 C   0  0  0  0  0  0  0  0  0  0  0  0
    6.3301    2.0984    0.0000 C   0  0  0  0  0  0  0  0  0  0  0  0
    8.0622    2.0984    0.0000 C   0  0  0  0  0  0  0  0  0  0  0  0
    6.2114   -5.0486    0.0000 C   0  0  0  0  0  0  0  0  0  0  0  0
    7.1962    2.5984    0.0000 C   0  0  0  0  0  0  0  0  0  0  0  0
    7.1469   -5.5984    0.0000 C   0  0  0  0  0  0  0  0  0  0  0  0
    5.4641    3.5984    0.0000 C   0  0  0  0  0  0  0  0  0  0  0  0
    4.5981    4.0984    0.0000 C   0  0  0  0  0  0  0  0  0  0  0  0
    4.5981    5.0984    0.0000 C   0  0  0  0  0  0  0  0  0  0  0  0
    3.7320    3.5984    0.0000 C   0  0  0  0  0  0  0  0  0  0  0  0
    3.7320    5.5984    0.0000 C   0  0  0  0  0  0  0  0  0  0  0  0
    2.8660    4.0984    0.0000 C   0  0  0  0  0  0  0  0  0  0  0  0
    2.8660    5.0984    0.0000 C   0  0  0  0  0  0  0  0  0  0  0  0
    6.2645   -0.2851    0.0000 H   0  0  0  0  0  0  0  0  0  0  0  0
    6.2645   -2.5182    0.0000 H   0  0  0  0  0  0  0  0  0  0  0  0
    7.7331   -0.0916    0.0000 H   0  0  0  0  0  0  0  0  0  0  0  0
    5.6349   -0.0300    0.0000 H   0  0  0  0  0  0  0  0  0  0  0  0
    4.8465   -0.2877    0.0000 H   0  0  0  0  0  0  0  0  0  0  0  0
    5.1913   -2.7957    0.0000 H   0  0  0  0  0  0  0  0  0  0  0  0
    8.5991   -0.5916    0.0000 H   0  0  0  0  0  0  0  0  0  0  0  0
    4.1803   -1.4016    0.0000 H   0  0  0  0  0  0  0  0  0  0  0  0
    9.5055   -2.0923    0.0000 H   0  0  0  0  0  0  0  0  0  0  0  0
    5.7932    0.7884    0.0000 H   0  0  0  0  0  0  0  0  0  0  0  0
    8.5991    0.7884    0.0000 H   0  0  0  0  0  0  0  0  0  0  0  0
    9.5183   -3.7580    0.0000 H   0  0  0  0  0  0  0  0  0  0  0  0
    5.6973   -3.6435    0.0000 H   0  0  0  0  0  0  0  0  0  0  0  0
    8.6246   -5.3638    0.0000 H   0  0  0  0  0  0  0  0  0  0  0  0
    8.5991    2.4084    0.0000 H   0  0  0  0  0  0  0  0  0  0  0  0
    5.6710   -5.3524    0.0000 H   0  0  0  0  0  0  0  0  0  0  0  0
    7.1962    3.2184    0.0000 H   0  0  0  0  0  0  0  0  0  0  0  0
    7.1445   -6.2184    0.0000 H   0  0  0  0  0  0  0  0  0  0  0  0
    4.9272    2.2884    0.0000 H   0  0  0  0  0  0  0  0  0  0  0  0
    5.1350    5.4084    0.0000 H   0  0  0  0  0  0  0  0  0  0  0  0
    3.7320    2.9784    0.0000 H   0  0  0  0  0  0  0  0  0  0  0  0
    3.7320    6.2184    0.0000 H   0  0  0  0  0  0  0  0  0  0  0  0
    2.3291    3.7884    0.0000 H   0  0  0  0  0  0  0  0  0  0  0  0
  1 33  1  0  0  0  0
  2 27  2  0  0  0  0
  3  7  1  0  0  0  0
  3 11  1  0  0  0  0
  3 40  1  0  0  0  0
  4 22  1  0  0  0  0
  4 27  1  0  0  0  0
  4 52  1  0  0  0  0
  5  6  1  0  0  0  0
  5  7  1  0  0  0  0
  5  8  1  0  0  0  0
  5 34  1  0  0  0  0
  6  9  1  0  0  0  0
  6 10  1  0  0  0  0
  6 35  1  0  0  0  0
  7 13  1  0  0  0  0
  7 36  1  0  0  0  0
  8 12  1  0  0  0  0
  8 37  1  0  0  0  0
  8 38  1  0  0  0  0
  9 11  2  0  0  0  0
  9 14  1  0  0  0  0
 10 12  2  0  0  0  0
 10 39  1  0  0  0  0
 11 15  1  0  0  0  0
 12 41  1  0  0  0  0
 13 17  2  0  0  0  0
 13 18  1  0  0  0  0
 14 16  1  0  0  0  0
 14 20  2  0  0  0  0
 15 19  2  0  0  0  0
 15 42  1  0  0  0  0
 16 19  1  0  0  0  0
 16 21  2  0  0  0  0
 17 22  1  0  0  0  0
 17 43  1  0  0  0  0
 18 23  2  0  0  0  0
 18 44  1  0  0  0  0
 19 45  1  0  0  0  0
 20 24  1  0  0  0  0
 20 46  1  0  0  0  0
 21 26  1  0  0  0  0
 21 47  1  0  0  0  0
 22 25  2  0  0  0  0
 23 25  1  0  0  0  0
 23 48  1  0  0  0  0
 24 26  2  0  0  0  0
 24 49  1  0  0  0  0
 25 50  1  0  0  0  0
 26 51  1  0  0  0  0
 27 28  1  0  0  0  0
 28 29  2  0  0  0  0
 28 30  1  0  0  0  0
 29 31  1  0  0  0  0
 29 53  1  0  0  0  0
 30 32  2  0  0  0  0
 30 54  1  0  0  0  0
 31 33  2  0  0  0  0
 31 55  1  0  0  0  0
 32 33  1  0  0  0  0
 32 56  1  0  0  0  0
M  END
> <PUBCHEM_COMPOUND_CID>
23740938

> <PUBCHEM_COMPOUND_CANONICALIZED>
1

> <PUBCHEM_CACTVS_COMPLEXITY>
731

> <PUBCHEM_CACTVS_HBOND_ACCEPTOR>
3

> <PUBCHEM_CACTVS_HBOND_DONOR>
2

> <PUBCHEM_CACTVS_ROTATABLE_BOND>
3

> <PUBCHEM_CACTVS_SUBSKEYS>
AAADceB7IQAAAAAAAAAAAAAAAAAAAQAAAAA8YMGCAAAAAEDxVAAAHwAQAAAADSjBmAwwwMLAAACIAiVSUACCAAAlAgAIiIEIZMgIIDLAlZGEIQhglADIyYcYiMCOiAACQAASAAAQAASAACQAAAAAAAAAAA==

> <PUBCHEM_IUPAC_OPENEYE_NAME>
N-[3-(11-azatetracyclo[8.7.0.02,7.013,17]heptadeca-1(10),2,4,6,8,15-hexaen-12-yl)phenyl]-4-fluoro-benzamide

> <PUBCHEM_IUPAC_CAS_NAME>
N-[3-(11-azatetracyclo[8.7.0.02,7.013,17]heptadeca-1(10),2,4,6,8,15-hexaen-12-yl)phenyl]-4-fluorobenzamide

> <PUBCHEM_IUPAC_NAME_MARKUP>
<I>N</I>-[3-(11-azatetracyclo[8.7.0.0<SUP>2,7</SUP>.0<SUP>13,17</SUP>]heptadeca-1(10),2,4,6,8,15-hexaen-12-yl)phenyl]-4-fluorobenzamide

> <PUBCHEM_IUPAC_NAME>
N-[3-(11-azatetracyclo[8.7.0.02,7.013,17]heptadeca-1(10),2,4,6,8,15-hexaen-12-yl)phenyl]-4-fluorobenzamide

> <PUBCHEM_IUPAC_SYSTEMATIC_NAME>
N-[3-(11-azatetracyclo[8.7.0.02,7.013,17]heptadeca-1(10),2,4,6,8,15-hexaen-12-yl)phenyl]-4-fluoranyl-benzamide

> <PUBCHEM_IUPAC_TRADITIONAL_NAME>
N-[3-(11-azatetracyclo[8.7.0.02,7.013,17]heptadeca-1(10),2,4,6,8,15-hexaen-12-yl)phenyl]-4-fluoro-benzamide

> <PUBCHEM_IUPAC_INCHI>
InChI=1S/C29H23FN2O/c30-21-14-11-19(12-15-21)29(33)31-22-7-3-6-20(17-22)28-25-10-4-9-24(25)27-23-8-2-1-5-18(23)13-16-26(27)32-28/h1-9,11-17,24-25,28,32H,10H2,(H,31,33)

> <PUBCHEM_IUPAC_INCHIKEY>
ZZIXCHIEESZZDI-UHFFFAOYSA-N

> <PUBCHEM_XLOGP3_AA>
6.6

> <PUBCHEM_EXACT_MASS>
434.17944152

> <PUBCHEM_MOLECULAR_FORMULA>
C29H23FN2O

> <PUBCHEM_MOLECULAR_WEIGHT>
434.5

> <PUBCHEM_SMILES>
C1C=CC2C1C(NC3=C2C4=CC=CC=C4C=C3)C5=CC(=CC=C5)NC(=O)C6=CC=C(C=C6)F

> <PUBCHEM_OPENEYE_CAN_SMILES>
C1C=CC2C1C(NC3=C2C4=CC=CC=C4C=C3)C5=CC(=CC=C5)NC(=O)C6=CC=C(C=C6)F

> <PUBCHEM_OPENEYE_ISO_SMILES>
C1C=CC2C1C(NC3=C2C4=CC=CC=C4C=C3)C5=CC(=CC=C5)NC(=O)C6=CC=C(C=C6)F

> <PUBCHEM_CACTVS_TPSA>
41.1

> <PUBCHEM_MONOISOTOPIC_WEIGHT>
434.17944152

> <PUBCHEM_TOTAL_CHARGE>
0

> <PUBCHEM_HEAVY_ATOM_COUNT>
33

> <PUBCHEM_ATOM_DEF_STEREO_COUNT>
0

> <PUBCHEM_ATOM_UDEF_STEREO_COUNT>
3

> <PUBCHEM_BOND_DEF_STEREO_COUNT>
0

> <PUBCHEM_BOND_UDEF_STEREO_COUNT>
0

> <PUBCHEM_ISOTOPIC_ATOM_COUNT>
0

> <PUBCHEM_COMPONENT_COUNT>
1

> <PUBCHEM_CACTVS_TAUTO_COUNT>
-1

> <PUBCHEM_COORDINATE_TYPE>
1
5
255

> <PUBCHEM_BONDANNOTATIONS>
11  15  8
13  17  8
13  18  8
14  16  8
14  20  8
15  19  8
16  19  8
16  21  8
17  22  8
18  23  8
20  24  8
21  26  8
22  25  8
23  25  8
24  26  8
28  29  8
28  30  8
29  31  8
30  32  8
31  33  8
32  33  8
5  8  3
6  10  3
7  13  3
9  11  8
9  14  8

$$$$
