24905161
  -OEChem-03192523482D

 42 44  0     0  0  0  0  0  0999 V2000
    6.8994    3.1670    0.0000 S   0  0  0  0  0  0  0  0  0  0  0  0
    6.6932    4.1456    0.0000 O   0  0  0  0  0  0  0  0  0  0  0  0
    7.1056    2.1885    0.0000 O   0  0  0  0  0  0  0  0  0  0  0  0
    4.6783   -2.4507    0.0000 N   0  0  0  0  0  0  0  0  0  0  0  0
    5.2619   -1.6460    0.0000 N   0  0  0  0  0  0  0  0  0  0  0  0
    2.8660   -2.6460    0.0000 N   0  0  0  0  0  0  0  0  0  0  0  0
    2.0000   -1.1460    0.0000 N   0  0  0  0  0  0  0  0  0  0  0  0
    5.9209    2.9608    0.0000 N   0  0  0  0  0  0  0  0  0  0  0  0
    2.8660    0.3540    0.0000 N   0  0  0  0  0  0  0  0  0  0  0  0
    4.9889   -3.4012    0.0000 C   0  0  0  0  0  0  0  0  0  0  0  0
    3.7320   -2.1460    0.0000 C   0  0  0  0  0  0  0  0  0  0  0  0
    3.7320   -1.1460    0.0000 C   0  0  0  0  0  0  0  0  0  0  0  0
    4.6783   -0.8413    0.0000 C   0  0  0  0  0  0  0  0  0  0  0  0
    4.9889    0.1093    0.0000 C   0  0  0  0  0  0  0  0  0  0  0  0
    5.9674   -3.6075    0.0000 C   0  0  0  0  0  0  0  0  0  0  0  0
    4.3211   -4.1456    0.0000 C   0  0  0  0  0  0  0  0  0  0  0  0
    2.8660   -0.6460    0.0000 C   0  0  0  0  0  0  0  0  0  0  0  0
    5.9674    0.3155    0.0000 C   0  0  0  0  0  0  0  0  0  0  0  0
    4.3211    0.8536    0.0000 C   0  0  0  0  0  0  0  0  0  0  0  0
    5.6103    2.0103    0.0000 C   0  0  0  0  0  0  0  0  0  0  0  0
    6.2781    1.2660    0.0000 C   0  0  0  0  0  0  0  0  0  0  0  0
    4.6318    1.8041    0.0000 C   0  0  0  0  0  0  0  0  0  0  0  0
    2.0000   -2.1460    0.0000 C   0  0  0  0  0  0  0  0  0  0  0  0
    7.8779    3.3733    0.0000 C   0  0  0  0  0  0  0  0  0  0  0  0
    5.4030   -2.9398    0.0000 H   0  0  0  0  0  0  0  0  0  0  0  0
    5.8396   -4.2141    0.0000 H   0  0  0  0  0  0  0  0  0  0  0  0
    6.5741   -3.7353    0.0000 H   0  0  0  0  0  0  0  0  0  0  0  0
    6.0953   -3.0008    0.0000 H   0  0  0  0  0  0  0  0  0  0  0  0
    3.8596   -3.7315    0.0000 H   0  0  0  0  0  0  0  0  0  0  0  0
    3.9070   -4.6070    0.0000 H   0  0  0  0  0  0  0  0  0  0  0  0
    4.7826   -4.5596    0.0000 H   0  0  0  0  0  0  0  0  0  0  0  0
    6.3815   -0.1460    0.0000 H   0  0  0  0  0  0  0  0  0  0  0  0
    3.7144    0.7257    0.0000 H   0  0  0  0  0  0  0  0  0  0  0  0
    6.8848    1.3939    0.0000 H   0  0  0  0  0  0  0  0  0  0  0  0
    4.2177    2.2656    0.0000 H   0  0  0  0  0  0  0  0  0  0  0  0
    1.4631   -2.4560    0.0000 H   0  0  0  0  0  0  0  0  0  0  0  0
    5.5069    3.4223    0.0000 H   0  0  0  0  0  0  0  0  0  0  0  0
    2.3291    0.6640    0.0000 H   0  0  0  0  0  0  0  0  0  0  0  0
    3.4030    0.6640    0.0000 H   0  0  0  0  0  0  0  0  0  0  0  0
    8.0058    2.7666    0.0000 H   0  0  0  0  0  0  0  0  0  0  0  0
    8.4846    3.5011    0.0000 H   0  0  0  0  0  0  0  0  0  0  0  0
    7.7501    3.9799    0.0000 H   0  0  0  0  0  0  0  0  0  0  0  0
  1  2  2  0  0  0  0
  1  3  2  0  0  0  0
  1  8  1  0  0  0  0
  1 24  1  0  0  0  0
  4  5  1  0  0  0  0
  4 10  1  0  0  0  0
  4 11  1  0  0  0  0
  5 13  2  0  0  0  0
  6 11  2  0  0  0  0
  6 23  1  0  0  0  0
  7 17  1  0  0  0  0
  7 23  2  0  0  0  0
  8 20  1  0  0  0  0
  8 37  1  0  0  0  0
  9 17  1  0  0  0  0
  9 38  1  0  0  0  0
  9 39  1  0  0  0  0
 10 15  1  0  0  0  0
 10 16  1  0  0  0  0
 10 25  1  0  0  0  0
 11 12  1  0  0  0  0
 12 13  1  0  0  0  0
 12 17  2  0  0  0  0
 13 14  1  0  0  0  0
 14 18  2  0  0  0  0
 14 19  1  0  0  0  0
 15 26  1  0  0  0  0
 15 27  1  0  0  0  0
 15 28  1  0  0  0  0
 16 29  1  0  0  0  0
 16 30  1  0  0  0  0
 16 31  1  0  0  0  0
 18 21  1  0  0  0  0
 18 32  1  0  0  0  0
 19 22  2  0  0  0  0
 19 33  1  0  0  0  0
 20 21  2  0  0  0  0
 20 22  1  0  0  0  0
 21 34  1  0  0  0  0
 22 35  1  0  0  0  0
 23 36  1  0  0  0  0
 24 40  1  0  0  0  0
 24 41  1  0  0  0  0
 24 42  1  0  0  0  0
M  END
> <PUBCHEM_COMPOUND_CID>
24905161

> <PUBCHEM_COMPOUND_CANONICALIZED>
1

> <PUBCHEM_CACTVS_COMPLEXITY>
529

> <PUBCHEM_CACTVS_HBOND_ACCEPTOR>
7

> <PUBCHEM_CACTVS_HBOND_DONOR>
2

> <PUBCHEM_CACTVS_ROTATABLE_BOND>
4

> <PUBCHEM_CACTVS_SUBSKEYS>
AAADceBzsABAAAAAAAAAAAAAAAAAAWAAAAA8QAAAAAAAAFgB/AAAHAQYQAAADCjBHwS38N5IEAKiAyZjZHCShCsxgqAd2CAoZJiIKKLA2dGEpAhomALIyCcQgMAOCAAAAAAAAAAQAAAAAAAAAAAAAAAAAA==

> <PUBCHEM_IUPAC_OPENEYE_NAME>
N-[4-(4-amino-1-isopropyl-pyrazolo[3,4-d]pyrimidin-3-yl)phenyl]methanesulfonamide

> <PUBCHEM_IUPAC_CAS_NAME>
N-[4-(4-amino-1-propan-2-yl-3-pyrazolo[3,4-d]pyrimidinyl)phenyl]methanesulfonamide

> <PUBCHEM_IUPAC_NAME_MARKUP>
<I>N</I>-[4-(4-amino-1-propan-2-ylpyrazolo[3,4-d]pyrimidin-3-yl)phenyl]methanesulfonamide

> <PUBCHEM_IUPAC_NAME>
N-[4-(4-amino-1-propan-2-ylpyrazolo[3,4-d]pyrimidin-3-yl)phenyl]methanesulfonamide

> <PUBCHEM_IUPAC_SYSTEMATIC_NAME>
N-[4-(4-azanyl-1-propan-2-yl-pyrazolo[3,4-d]pyrimidin-3-yl)phenyl]methanesulfonamide

> <PUBCHEM_IUPAC_TRADITIONAL_NAME>
N-[4-(4-amino-1-isopropyl-pyrazolo[3,4-d]pyrimidin-3-yl)phenyl]methanesulfonamide

> <PUBCHEM_IUPAC_INCHI>
InChI=1S/C15H18N6O2S/c1-9(2)21-15-12(14(16)17-8-18-15)13(19-21)10-4-6-11(7-5-10)20-24(3,22)23/h4-9,20H,1-3H3,(H2,16,17,18)

> <PUBCHEM_IUPAC_INCHIKEY>
HMKCVXALDWCZFL-UHFFFAOYSA-N

> <PUBCHEM_XLOGP3_AA>
1.2

> <PUBCHEM_EXACT_MASS>
346.12119501

> <PUBCHEM_MOLECULAR_FORMULA>
C15H18N6O2S

> <PUBCHEM_MOLECULAR_WEIGHT>
346.4

> <PUBCHEM_SMILES>
CC(C)N1C2=NC=NC(=C2C(=N1)C3=CC=C(C=C3)NS(=O)(=O)C)N

> <PUBCHEM_OPENEYE_CAN_SMILES>
CC(C)N1C2=NC=NC(=C2C(=N1)C3=CC=C(C=C3)NS(=O)(=O)C)N

> <PUBCHEM_OPENEYE_ISO_SMILES>
CC(C)N1C2=NC=NC(=C2C(=N1)C3=CC=C(C=C3)NS(=O)(=O)C)N

> <PUBCHEM_CACTVS_TPSA>
124

> <PUBCHEM_MONOISOTOPIC_WEIGHT>
346.12119501

> <PUBCHEM_TOTAL_CHARGE>
0

> <PUBCHEM_HEAVY_ATOM_COUNT>
24

> <PUBCHEM_ATOM_DEF_STEREO_COUNT>
0

> <PUBCHEM_ATOM_UDEF_STEREO_COUNT>
0

> <PUBCHEM_BOND_DEF_STEREO_COUNT>
0

> <PUBCHEM_BOND_UDEF_STEREO_COUNT>
0

> <PUBCHEM_ISOTOPIC_ATOM_COUNT>
0

> <PUBCHEM_COMPONENT_COUNT>
1

> <PUBCHEM_CACTVS_TAUTO_COUNT>
-1

> <PUBCHEM_COORDINATE_TYPE>
1
5
255

> <PUBCHEM_BONDANNOTATIONS>
11  12  8
12  13  8
12  17  8
14  18  8
14  19  8
18  21  8
19  22  8
20  21  8
20  22  8
4  11  8
4  5  8
5  13  8
6  11  8
6  23  8
7  17  8
7  23  8

$$$$
