49830719
  -OEChem-03202502202D

 43 46  0     0  0  0  0  0  0999 V2000
    6.3301    1.8282    0.0000 O   0  0  0  0  0  0  0  0  0  0  0  0
    2.8660   -0.1719    0.0000 O   0  0  0  0  0  0  0  0  0  0  0  0
    8.9282    0.3281    0.0000 N   0  0  0  0  0  0  0  0  0  0  0  0
    6.3301   -0.1719    0.0000 N   0  0  0  0  0  0  0  0  0  0  0  0
    8.0622   -0.1719    0.0000 N   0  0  0  0  0  0  0  0  0  0  0  0
   10.4580    0.8281    0.0000 N   0  0  0  0  0  0  0  0  0  0  0  0
    9.8744    1.6329    0.0000 N   0  0  0  0  0  0  0  0  0  0  0  0
    9.8744    0.0234    0.0000 C   0  0  0  0  0  0  0  0  0  0  0  0
    8.9282    1.3282    0.0000 C   0  0  0  0  0  0  0  0  0  0  0  0
    7.1962    0.3281    0.0000 C   0  0  0  0  0  0  0  0  0  0  0  0
    5.4641    0.3281    0.0000 C   0  0  0  0  0  0  0  0  0  0  0  0
   10.1851   -0.9271    0.0000 C   0  0  0  0  0  0  0  0  0  0  0  0
    8.0622    1.8282    0.0000 C   0  0  0  0  0  0  0  0  0  0  0  0
    7.1962    1.3282    0.0000 C   0  0  0  0  0  0  0  0  0  0  0  0
    5.4641    1.3282    0.0000 C   0  0  0  0  0  0  0  0  0  0  0  0
    4.5981   -0.1719    0.0000 C   0  0  0  0  0  0  0  0  0  0  0  0
    3.7320    0.3281    0.0000 C   0  0  0  0  0  0  0  0  0  0  0  0
    9.5172   -1.6714    0.0000 C   0  0  0  0  0  0  0  0  0  0  0  0
   11.1636   -1.1333    0.0000 C   0  0  0  0  0  0  0  0  0  0  0  0
    4.5981    1.8282    0.0000 C   0  0  0  0  0  0  0  0  0  0  0  0
    3.7320    1.3282    0.0000 C   0  0  0  0  0  0  0  0  0  0  0  0
    9.8279   -2.6219    0.0000 C   0  0  0  0  0  0  0  0  0  0  0  0
   11.4743   -2.0838    0.0000 C   0  0  0  0  0  0  0  0  0  0  0  0
   10.8064   -2.8282    0.0000 C   0  0  0  0  0  0  0  0  0  0  0  0
    6.3301    2.8282    0.0000 C   0  0  0  0  0  0  0  0  0  0  0  0
    2.0000    0.3281    0.0000 C   0  0  0  0  0  0  0  0  0  0  0  0
    6.3301   -0.7919    0.0000 H   0  0  0  0  0  0  0  0  0  0  0  0
    8.0622    2.4482    0.0000 H   0  0  0  0  0  0  0  0  0  0  0  0
    6.6592    1.6382    0.0000 H   0  0  0  0  0  0  0  0  0  0  0  0
    4.5981   -0.7919    0.0000 H   0  0  0  0  0  0  0  0  0  0  0  0
    8.9106   -1.5436    0.0000 H   0  0  0  0  0  0  0  0  0  0  0  0
   11.5777   -0.6719    0.0000 H   0  0  0  0  0  0  0  0  0  0  0  0
    4.5981    2.4482    0.0000 H   0  0  0  0  0  0  0  0  0  0  0  0
    3.1951    1.6382    0.0000 H   0  0  0  0  0  0  0  0  0  0  0  0
    9.4138   -3.0834    0.0000 H   0  0  0  0  0  0  0  0  0  0  0  0
   12.0809   -2.2117    0.0000 H   0  0  0  0  0  0  0  0  0  0  0  0
   10.9990   -3.4175    0.0000 H   0  0  0  0  0  0  0  0  0  0  0  0
    6.9501    2.8282    0.0000 H   0  0  0  0  0  0  0  0  0  0  0  0
    6.3301    3.4482    0.0000 H   0  0  0  0  0  0  0  0  0  0  0  0
    5.7101    2.8282    0.0000 H   0  0  0  0  0  0  0  0  0  0  0  0
    2.3100    0.8651    0.0000 H   0  0  0  0  0  0  0  0  0  0  0  0
    1.4631    0.6381    0.0000 H   0  0  0  0  0  0  0  0  0  0  0  0
    1.6900   -0.2088    0.0000 H   0  0  0  0  0  0  0  0  0  0  0  0
  1 15  1  0  0  0  0
  1 25  1  0  0  0  0
  2 17  1  0  0  0  0
  2 26  1  0  0  0  0
  3  5  1  0  0  0  0
  3  8  1  0  0  0  0
  3  9  1  0  0  0  0
  4 10  1  0  0  0  0
  4 11  1  0  0  0  0
  4 27  1  0  0  0  0
  5 10  2  0  0  0  0
  6  7  1  0  0  0  0
  6  8  2  0  0  0  0
  7  9  2  0  0  0  0
  8 12  1  0  0  0  0
  9 13  1  0  0  0  0
 10 14  1  0  0  0  0
 11 15  2  0  0  0  0
 11 16  1  0  0  0  0
 12 18  2  0  0  0  0
 12 19  1  0  0  0  0
 13 14  2  0  0  0  0
 13 28  1  0  0  0  0
 14 29  1  0  0  0  0
 15 20  1  0  0  0  0
 16 17  2  0  0  0  0
 16 30  1  0  0  0  0
 17 21  1  0  0  0  0
 18 22  1  0  0  0  0
 18 31  1  0  0  0  0
 19 23  2  0  0  0  0
 19 32  1  0  0  0  0
 20 21  2  0  0  0  0
 20 33  1  0  0  0  0
 21 34  1  0  0  0  0
 22 24  2  0  0  0  0
 22 35  1  0  0  0  0
 23 24  1  0  0  0  0
 23 36  1  0  0  0  0
 24 37  1  0  0  0  0
 25 38  1  0  0  0  0
 25 39  1  0  0  0  0
 25 40  1  0  0  0  0
 26 41  1  0  0  0  0
 26 42  1  0  0  0  0
 26 43  1  0  0  0  0
M  END
> <PUBCHEM_COMPOUND_CID>
49830719

> <PUBCHEM_COMPOUND_CANONICALIZED>
1

> <PUBCHEM_CACTVS_COMPLEXITY>
448

> <PUBCHEM_CACTVS_HBOND_ACCEPTOR>
6

> <PUBCHEM_CACTVS_HBOND_DONOR>
1

> <PUBCHEM_CACTVS_ROTATABLE_BOND>
5

> <PUBCHEM_CACTVS_SUBSKEYS>
AAADceB7sAAAAAAAAAAAAAAAAAAAAWAAAAA8YIAAAAAAAFgB9AAAHgAYAAAADAyBmwIz9p7IFACiAiZiZACSjCshIqAdmCA3bJiOLuLEuZuFsCh22BvY6CfQ0AMOAQAAAgAAEAACAAAEAAAgAAAAAAAAAA==

> <PUBCHEM_IUPAC_OPENEYE_NAME>
N-(2,5-dimethoxyphenyl)-3-phenyl-[1,2,4]triazolo[4,3-b]pyridazin-6-amine

> <PUBCHEM_IUPAC_CAS_NAME>
N-(2,5-dimethoxyphenyl)-3-phenyl-[1,2,4]triazolo[4,3-b]pyridazin-6-amine

> <PUBCHEM_IUPAC_NAME_MARKUP>
<I>N</I>-(2,5-dimethoxyphenyl)-3-phenyl-[1,2,4]triazolo[4,3-b]pyridazin-6-amine

> <PUBCHEM_IUPAC_NAME>
N-(2,5-dimethoxyphenyl)-3-phenyl-[1,2,4]triazolo[4,3-b]pyridazin-6-amine

> <PUBCHEM_IUPAC_SYSTEMATIC_NAME>
N-(2,5-dimethoxyphenyl)-3-phenyl-[1,2,4]triazolo[4,3-b]pyridazin-6-amine

> <PUBCHEM_IUPAC_TRADITIONAL_NAME>
(2,5-dimethoxyphenyl)-(3-phenyl-[1,2,4]triazolo[4,3-b]pyridazin-6-yl)amine

> <PUBCHEM_IUPAC_INCHI>
InChI=1S/C19H17N5O2/c1-25-14-8-9-16(26-2)15(12-14)20-17-10-11-18-21-22-19(24(18)23-17)13-6-4-3-5-7-13/h3-12H,1-2H3,(H,20,23)

> <PUBCHEM_IUPAC_INCHIKEY>
GPSRFACTNSQKSI-UHFFFAOYSA-N

> <PUBCHEM_XLOGP3_AA>
3.2

> <PUBCHEM_EXACT_MASS>
347.13822480

> <PUBCHEM_MOLECULAR_FORMULA>
C19H17N5O2

> <PUBCHEM_MOLECULAR_WEIGHT>
347.4

> <PUBCHEM_SMILES>
COC1=CC(=C(C=C1)OC)NC2=NN3C(=NN=C3C4=CC=CC=C4)C=C2

> <PUBCHEM_OPENEYE_CAN_SMILES>
COC1=CC(=C(C=C1)OC)NC2=NN3C(=NN=C3C4=CC=CC=C4)C=C2

> <PUBCHEM_OPENEYE_ISO_SMILES>
COC1=CC(=C(C=C1)OC)NC2=NN3C(=NN=C3C4=CC=CC=C4)C=C2

> <PUBCHEM_CACTVS_TPSA>
73.6

> <PUBCHEM_MONOISOTOPIC_WEIGHT>
347.13822480

> <PUBCHEM_TOTAL_CHARGE>
0

> <PUBCHEM_HEAVY_ATOM_COUNT>
26

> <PUBCHEM_ATOM_DEF_STEREO_COUNT>
0

> <PUBCHEM_ATOM_UDEF_STEREO_COUNT>
0

> <PUBCHEM_BOND_DEF_STEREO_COUNT>
0

> <PUBCHEM_BOND_UDEF_STEREO_COUNT>
0

> <PUBCHEM_ISOTOPIC_ATOM_COUNT>
0

> <PUBCHEM_COMPONENT_COUNT>
1

> <PUBCHEM_CACTVS_TAUTO_COUNT>
-1

> <PUBCHEM_COORDINATE_TYPE>
1
5
255

> <PUBCHEM_BONDANNOTATIONS>
10  14  8
11  15  8
11  16  8
12  18  8
12  19  8
13  14  8
15  20  8
16  17  8
17  21  8
18  22  8
19  23  8
20  21  8
22  24  8
23  24  8
3  5  8
3  8  8
3  9  8
5  10  8
6  7  8
6  8  8
7  9  8
9  13  8

$$$$
