3661799
  -OEChem-03202503352D

 36 39  0     0  0  0  0  0  0999 V2000
    2.8660   -0.5986    0.0000 O   0  0  0  0  0  0  0  0  0  0  0  0
    8.3285   -1.2983    0.0000 O   0  0  0  0  0  0  0  0  0  0  0  0
    6.4103   -2.4033    0.0000 N   0  0  0  0  0  0  0  0  0  0  0  0
    9.2996    0.1891    0.0000 N   0  0  0  0  0  0  0  0  0  0  0  0
    6.4103   -0.7938    0.0000 C   0  0  0  0  0  0  0  0  0  0  0  0
    5.4641   -1.0986    0.0000 C   0  0  0  0  0  0  0  0  0  0  0  0
    7.6995    0.3629    0.0000 C   0  0  0  0  0  0  0  0  0  0  0  0
    8.1046    1.2707    0.0000 C   0  0  0  0  0  0  0  0  0  0  0  0
    5.4641   -2.0986    0.0000 C   0  0  0  0  0  0  0  0  0  0  0  0
    6.7210    0.1567    0.0000 C   0  0  0  0  0  0  0  0  0  0  0  0
    9.0988    1.1627    0.0000 C   0  0  0  0  0  0  0  0  0  0  0  0
    6.9939   -1.5986    0.0000 C   0  0  0  0  0  0  0  0  0  0  0  0
    8.4365   -0.3042    0.0000 C   0  0  0  0  0  0  0  0  0  0  0  0
    4.5981   -0.5986    0.0000 C   0  0  0  0  0  0  0  0  0  0  0  0
    4.5981   -2.5986    0.0000 C   0  0  0  0  0  0  0  0  0  0  0  0
    7.7010    2.1856    0.0000 C   0  0  0  0  0  0  0  0  0  0  0  0
    3.7320   -1.0986    0.0000 C   0  0  0  0  0  0  0  0  0  0  0  0
    9.6893    1.9697    0.0000 C   0  0  0  0  0  0  0  0  0  0  0  0
    3.7320   -2.0986    0.0000 C   0  0  0  0  0  0  0  0  0  0  0  0
    8.2916    2.9926    0.0000 C   0  0  0  0  0  0  0  0  0  0  0  0
    9.2858    2.8846    0.0000 C   0  0  0  0  0  0  0  0  0  0  0  0
    2.0000   -1.0986    0.0000 C   0  0  0  0  0  0  0  0  0  0  0  0
    6.3069    0.6182    0.0000 H   0  0  0  0  0  0  0  0  0  0  0  0
    7.6139   -1.5986    0.0000 H   0  0  0  0  0  0  0  0  0  0  0  0
    6.6029   -2.9926    0.0000 H   0  0  0  0  0  0  0  0  0  0  0  0
    4.5981    0.0214    0.0000 H   0  0  0  0  0  0  0  0  0  0  0  0
    9.8646   -0.0660    0.0000 H   0  0  0  0  0  0  0  0  0  0  0  0
    4.5981   -3.2186    0.0000 H   0  0  0  0  0  0  0  0  0  0  0  0
    7.0847    2.2526    0.0000 H   0  0  0  0  0  0  0  0  0  0  0  0
   10.3057    1.9028    0.0000 H   0  0  0  0  0  0  0  0  0  0  0  0
    3.1951   -2.4086    0.0000 H   0  0  0  0  0  0  0  0  0  0  0  0
    8.0414    3.5599    0.0000 H   0  0  0  0  0  0  0  0  0  0  0  0
    9.6519    3.3850    0.0000 H   0  0  0  0  0  0  0  0  0  0  0  0
    1.6900   -0.5616    0.0000 H   0  0  0  0  0  0  0  0  0  0  0  0
    1.4631   -1.4086    0.0000 H   0  0  0  0  0  0  0  0  0  0  0  0
    2.3100   -1.6355    0.0000 H   0  0  0  0  0  0  0  0  0  0  0  0
  1 17  1  0  0  0  0
  1 22  1  0  0  0  0
  2 13  2  0  0  0  0
  3  9  1  0  0  0  0
  3 12  1  0  0  0  0
  3 25  1  0  0  0  0
  4 11  1  0  0  0  0
  4 13  1  0  0  0  0
  4 27  1  0  0  0  0
  5  6  1  0  0  0  0
  5 10  1  0  0  0  0
  5 12  2  0  0  0  0
  6  9  2  0  0  0  0
  6 14  1  0  0  0  0
  7  8  1  0  0  0  0
  7 10  2  3  0  0  0
  7 13  1  0  0  0  0
  8 11  1  0  0  0  0
  8 16  2  0  0  0  0
  9 15  1  0  0  0  0
 10 23  1  0  0  0  0
 11 18  2  0  0  0  0
 12 24  1  0  0  0  0
 14 17  2  0  0  0  0
 14 26  1  0  0  0  0
 15 19  2  0  0  0  0
 15 28  1  0  0  0  0
 16 20  1  0  0  0  0
 16 29  1  0  0  0  0
 17 19  1  0  0  0  0
 18 21  1  0  0  0  0
 18 30  1  0  0  0  0
 19 31  1  0  0  0  0
 20 21  2  0  0  0  0
 20 32  1  0  0  0  0
 21 33  1  0  0  0  0
 22 34  1  0  0  0  0
 22 35  1  0  0  0  0
 22 36  1  0  0  0  0
M  END
> <PUBCHEM_COMPOUND_CID>
3661799

> <PUBCHEM_COMPOUND_CANONICALIZED>
1

> <PUBCHEM_CACTVS_COMPLEXITY>
476

> <PUBCHEM_CACTVS_HBOND_ACCEPTOR>
2

> <PUBCHEM_CACTVS_HBOND_DONOR>
2

> <PUBCHEM_CACTVS_ROTATABLE_BOND>
2

> <PUBCHEM_CACTVS_SUBSKEYS>
AAADccB7MAAAAAAAAAAAAAAAAAAAAWLAAAAwYAAAAAAAAFgB9AAAHgAQAAAADAzBngY+xvLJlACoAzV3VACCiCAxIiAI2aE+bNgMJvLEtZuEMChk1BHI6Ye82PKOgEABAAACAAAAgAIAAAQAAAAAAAAAAA==

> <PUBCHEM_IUPAC_OPENEYE_NAME>
3-[(5-methoxy-1H-indol-3-yl)methylene]indolin-2-one

> <PUBCHEM_IUPAC_CAS_NAME>
3-[(5-methoxy-1H-indol-3-yl)methylidene]-1H-indol-2-one

> <PUBCHEM_IUPAC_NAME_MARKUP>
3-[(5-methoxy-1<I>H</I>-indol-3-yl)methylidene]-1<I>H</I>-indol-2-one

> <PUBCHEM_IUPAC_NAME>
3-[(5-methoxy-1H-indol-3-yl)methylidene]-1H-indol-2-one

> <PUBCHEM_IUPAC_SYSTEMATIC_NAME>
3-[(5-methoxy-1H-indol-3-yl)methylidene]-1H-indol-2-one

> <PUBCHEM_IUPAC_TRADITIONAL_NAME>
3-[(5-methoxy-1H-indol-3-yl)methylene]oxindole

> <PUBCHEM_IUPAC_INCHI>
InChI=1S/C18H14N2O2/c1-22-12-6-7-16-14(9-12)11(10-19-16)8-15-13-4-2-3-5-17(13)20-18(15)21/h2-10,19H,1H3,(H,20,21)

> <PUBCHEM_IUPAC_INCHIKEY>
OEJQBEJOXJYPRT-UHFFFAOYSA-N

> <PUBCHEM_XLOGP3_AA>
3

> <PUBCHEM_EXACT_MASS>
290.105527694

> <PUBCHEM_MOLECULAR_FORMULA>
C18H14N2O2

> <PUBCHEM_MOLECULAR_WEIGHT>
290.3

> <PUBCHEM_SMILES>
COC1=CC2=C(C=C1)NC=C2C=C3C4=CC=CC=C4NC3=O

> <PUBCHEM_OPENEYE_CAN_SMILES>
COC1=CC2=C(C=C1)NC=C2C=C3C4=CC=CC=C4NC3=O

> <PUBCHEM_OPENEYE_ISO_SMILES>
COC1=CC2=C(C=C1)NC=C2C=C3C4=CC=CC=C4NC3=O

> <PUBCHEM_CACTVS_TPSA>
54.1

> <PUBCHEM_MONOISOTOPIC_WEIGHT>
290.105527694

> <PUBCHEM_TOTAL_CHARGE>
0

> <PUBCHEM_HEAVY_ATOM_COUNT>
22

> <PUBCHEM_ATOM_DEF_STEREO_COUNT>
0

> <PUBCHEM_ATOM_UDEF_STEREO_COUNT>
0

> <PUBCHEM_BOND_DEF_STEREO_COUNT>
0

> <PUBCHEM_BOND_UDEF_STEREO_COUNT>
1

> <PUBCHEM_ISOTOPIC_ATOM_COUNT>
0

> <PUBCHEM_COMPONENT_COUNT>
1

> <PUBCHEM_CACTVS_TAUTO_COUNT>
-1

> <PUBCHEM_COORDINATE_TYPE>
1
5
255

> <PUBCHEM_BONDANNOTATIONS>
11  18  8
14  17  8
15  19  8
16  20  8
17  19  8
18  21  8
20  21  8
3  12  8
3  9  8
5  12  8
5  6  8
6  14  8
6  9  8
7  10  1
8  11  8
8  16  8
9  15  8

$$$$
