49830838
  -OEChem-03202503532D

 44 46  0     0  0  0  0  0  0999 V2000
    7.9128   -3.0000    0.0000 Cl  0  0  0  0  0  0  0  0  0  0  0  0
    4.4487   -1.0000    0.0000 O   0  0  0  0  0  0  0  0  0  0  0  0
    7.9128   -0.0000    0.0000 O   0  0  0  0  0  0  0  0  0  0  0  0
    6.1808   -0.0000    0.0000 N   0  0  0  0  0  0  0  0  0  0  0  0
    7.0468    1.5000    0.0000 N   0  0  0  0  0  0  0  0  0  0  0  0
    8.7788    1.5000    0.0000 N   0  0  0  0  0  0  0  0  0  0  0  0
    8.7788    3.5000    0.0000 N   0  0  0  0  0  0  0  0  0  0  0  0
   11.3769    4.0000    0.0000 N   0  0  0  0  0  0  0  0  0  0  0  0
    3.5827   -1.5000    0.0000 C   0  0  0  0  0  0  0  0  0  0  0  0
    2.6691   -1.0933    0.0000 C   0  0  0  0  0  0  0  0  0  0  0  0
    3.4782   -2.4945    0.0000 C   0  0  0  0  0  0  0  0  0  0  0  0
    2.0000   -1.8364    0.0000 C   0  0  0  0  0  0  0  0  0  0  0  0
    2.5000   -2.7024    0.0000 C   0  0  0  0  0  0  0  0  0  0  0  0
    5.3147   -1.5000    0.0000 C   0  0  0  0  0  0  0  0  0  0  0  0
    6.1808   -1.0000    0.0000 C   0  0  0  0  0  0  0  0  0  0  0  0
    5.3147   -2.5000    0.0000 C   0  0  0  0  0  0  0  0  0  0  0  0
    6.1808   -3.0000    0.0000 C   0  0  0  0  0  0  0  0  0  0  0  0
    7.0468   -1.5000    0.0000 C   0  0  0  0  0  0  0  0  0  0  0  0
    7.0468   -2.5000    0.0000 C   0  0  0  0  0  0  0  0  0  0  0  0
    6.1808   -4.0000    0.0000 C   0  0  0  0  0  0  0  0  0  0  0  0
    7.0468    0.5000    0.0000 C   0  0  0  0  0  0  0  0  0  0  0  0
    7.9128    2.0000    0.0000 C   0  0  0  0  0  0  0  0  0  0  0  0
    7.9128    3.0000    0.0000 C   0  0  0  0  0  0  0  0  0  0  0  0
    9.6448    2.0000    0.0000 C   0  0  0  0  0  0  0  0  0  0  0  0
    9.6448    3.0000    0.0000 C   0  0  0  0  0  0  0  0  0  0  0  0
   10.5109    3.5000    0.0000 C   0  0  0  0  0  0  0  0  0  0  0  0
    4.1026   -1.8377    0.0000 H   0  0  0  0  0  0  0  0  0  0  0  0
    2.9791   -0.5563    0.0000 H   0  0  0  0  0  0  0  0  0  0  0  0
    2.1675   -0.7288    0.0000 H   0  0  0  0  0  0  0  0  0  0  0  0
    3.5430   -3.1111    0.0000 H   0  0  0  0  0  0  0  0  0  0  0  0
    4.0982   -2.4945    0.0000 H   0  0  0  0  0  0  0  0  0  0  0  0
    1.5851   -1.3757    0.0000 H   0  0  0  0  0  0  0  0  0  0  0  0
    1.4984   -2.2008    0.0000 H   0  0  0  0  0  0  0  0  0  0  0  0
    1.9336   -2.9546    0.0000 H   0  0  0  0  0  0  0  0  0  0  0  0
    2.6916   -3.2921    0.0000 H   0  0  0  0  0  0  0  0  0  0  0  0
    4.7778   -2.8100    0.0000 H   0  0  0  0  0  0  0  0  0  0  0  0
    7.5837   -1.1900    0.0000 H   0  0  0  0  0  0  0  0  0  0  0  0
    5.6438    0.3100    0.0000 H   0  0  0  0  0  0  0  0  0  0  0  0
    5.5608   -4.0000    0.0000 H   0  0  0  0  0  0  0  0  0  0  0  0
    6.1808   -4.6200    0.0000 H   0  0  0  0  0  0  0  0  0  0  0  0
    6.8008   -4.0000    0.0000 H   0  0  0  0  0  0  0  0  0  0  0  0
    6.5098    1.8100    0.0000 H   0  0  0  0  0  0  0  0  0  0  0  0
    7.3759    3.3100    0.0000 H   0  0  0  0  0  0  0  0  0  0  0  0
   10.1818    1.6900    0.0000 H   0  0  0  0  0  0  0  0  0  0  0  0
  1 19  1  0  0  0  0
  2  9  1  0  0  0  0
  2 14  1  0  0  0  0
  3 21  2  0  0  0  0
  4 15  1  0  0  0  0
  4 21  1  0  0  0  0
  4 38  1  0  0  0  0
  5 21  1  0  0  0  0
  5 22  1  0  0  0  0
  5 42  1  0  0  0  0
  6 22  2  0  0  0  0
  6 24  1  0  0  0  0
  7 23  2  0  0  0  0
  7 25  1  0  0  0  0
  8 26  3  0  0  0  0
  9 10  1  0  0  0  0
  9 11  1  0  0  0  0
  9 27  1  0  0  0  0
 10 12  1  0  0  0  0
 10 28  1  0  0  0  0
 10 29  1  0  0  0  0
 11 13  1  0  0  0  0
 11 30  1  0  0  0  0
 11 31  1  0  0  0  0
 12 13  1  0  0  0  0
 12 32  1  0  0  0  0
 12 33  1  0  0  0  0
 13 34  1  0  0  0  0
 13 35  1  0  0  0  0
 14 15  2  0  0  0  0
 14 16  1  0  0  0  0
 15 18  1  0  0  0  0
 16 17  2  0  0  0  0
 16 36  1  0  0  0  0
 17 19  1  0  0  0  0
 17 20  1  0  0  0  0
 18 19  2  0  0  0  0
 18 37  1  0  0  0  0
 20 39  1  0  0  0  0
 20 40  1  0  0  0  0
 20 41  1  0  0  0  0
 22 23  1  0  0  0  0
 23 43  1  0  0  0  0
 24 25  2  0  0  0  0
 24 44  1  0  0  0  0
 25 26  1  0  0  0  0
M  END
> <PUBCHEM_COMPOUND_CID>
49830838

> <PUBCHEM_COMPOUND_CANONICALIZED>
1

> <PUBCHEM_CACTVS_COMPLEXITY>
533

> <PUBCHEM_CACTVS_HBOND_ACCEPTOR>
5

> <PUBCHEM_CACTVS_HBOND_DONOR>
2

> <PUBCHEM_CACTVS_ROTATABLE_BOND>
4

> <PUBCHEM_CACTVS_SUBSKEYS>
AAADceB7sAAEAAAAAAAAAAAAAAAAAYAAAAA8QAAAAAAAAAABwAAAHgIQAAAADB7hniY/9pLIFAC4BzZndACiiC0xNyAB2AA/foiO5mLFs5uXOCjs1RPY6CeQwBAOCCABAAIBEAAQQAIABAIgAAAAAAAAAA==

> <PUBCHEM_IUPAC_OPENEYE_NAME>
1-[5-chloro-2-(cyclopentoxy)-4-methyl-phenyl]-3-(5-cyanopyrazin-2-yl)urea

> <PUBCHEM_IUPAC_CAS_NAME>
1-(5-chloro-2-cyclopentyloxy-4-methylphenyl)-3-(5-cyano-2-pyrazinyl)urea

> <PUBCHEM_IUPAC_NAME_MARKUP>
1-(5-chloro-2-cyclopentyloxy-4-methylphenyl)-3-(5-cyanopyrazin-2-yl)urea

> <PUBCHEM_IUPAC_NAME>
1-(5-chloro-2-cyclopentyloxy-4-methylphenyl)-3-(5-cyanopyrazin-2-yl)urea

> <PUBCHEM_IUPAC_SYSTEMATIC_NAME>
1-(5-chloranyl-2-cyclopentyloxy-4-methyl-phenyl)-3-(5-cyanopyrazin-2-yl)urea

> <PUBCHEM_IUPAC_TRADITIONAL_NAME>
1-[5-chloro-2-(cyclopentoxy)-4-methyl-phenyl]-3-(5-cyanopyrazin-2-yl)urea

> <PUBCHEM_IUPAC_INCHI>
InChI=1S/C18H18ClN5O2/c1-11-6-16(26-13-4-2-3-5-13)15(7-14(11)19)23-18(25)24-17-10-21-12(8-20)9-22-17/h6-7,9-10,13H,2-5H2,1H3,(H2,22,23,24,25)

> <PUBCHEM_IUPAC_INCHIKEY>
NJKBCVHYFWYIIQ-UHFFFAOYSA-N

> <PUBCHEM_XLOGP3_AA>
3

> <PUBCHEM_EXACT_MASS>
371.1149025

> <PUBCHEM_MOLECULAR_FORMULA>
C18H18ClN5O2

> <PUBCHEM_MOLECULAR_WEIGHT>
371.8

> <PUBCHEM_SMILES>
CC1=CC(=C(C=C1Cl)NC(=O)NC2=NC=C(N=C2)C#N)OC3CCCC3

> <PUBCHEM_OPENEYE_CAN_SMILES>
CC1=CC(=C(C=C1Cl)NC(=O)NC2=NC=C(N=C2)C#N)OC3CCCC3

> <PUBCHEM_OPENEYE_ISO_SMILES>
CC1=CC(=C(C=C1Cl)NC(=O)NC2=NC=C(N=C2)C#N)OC3CCCC3

> <PUBCHEM_CACTVS_TPSA>
99.9

> <PUBCHEM_MONOISOTOPIC_WEIGHT>
371.1149025

> <PUBCHEM_TOTAL_CHARGE>
0

> <PUBCHEM_HEAVY_ATOM_COUNT>
26

> <PUBCHEM_ATOM_DEF_STEREO_COUNT>
0

> <PUBCHEM_ATOM_UDEF_STEREO_COUNT>
0

> <PUBCHEM_BOND_DEF_STEREO_COUNT>
0

> <PUBCHEM_BOND_UDEF_STEREO_COUNT>
0

> <PUBCHEM_ISOTOPIC_ATOM_COUNT>
0

> <PUBCHEM_COMPONENT_COUNT>
1

> <PUBCHEM_CACTVS_TAUTO_COUNT>
-1

> <PUBCHEM_COORDINATE_TYPE>
1
5
255

> <PUBCHEM_BONDANNOTATIONS>
14  15  8
14  16  8
15  18  8
16  17  8
17  19  8
18  19  8
22  23  8
24  25  8
6  22  8
6  24  8
7  23  8
7  25  8

$$$$
