52941849
  -OEChem-03202500092D

 37 39  0     0  0  0  0  0  0999 V2000
    4.8082    4.4484    0.0000 S   0  0  0  0  0  0  0  0  0  0  0  0
    3.4600   -0.9658    0.0000 O   0  0  0  0  0  0  0  0  0  0  0  0
    3.8946    4.8552    0.0000 O   0  0  0  0  0  0  0  0  0  0  0  0
    5.7217    4.0417    0.0000 O   0  0  0  0  0  0  0  0  0  0  0  0
    2.5369   -4.5536    0.0000 O   0  0  0  0  0  0  0  0  0  0  0  0
    4.2690   -5.5536    0.0000 O   0  0  0  0  0  0  0  0  0  0  0  0
    3.1812    0.7943    0.0000 N   0  0  0  0  0  0  0  0  0  0  0  0
    4.7690   -0.0147    0.0000 N   0  0  0  0  0  0  0  0  0  0  0  0
    5.2149    5.3620    0.0000 N   0  0  0  0  0  0  0  0  0  0  0  0
    3.5879    1.7078    0.0000 C   0  0  0  0  0  0  0  0  0  0  0  0
    4.4014    3.5349    0.0000 C   0  0  0  0  0  0  0  0  0  0  0  0
    4.2690   -2.5536    0.0000 C   0  0  0  0  0  0  0  0  0  0  0  0
    4.2690   -1.5536    0.0000 C   0  0  0  0  0  0  0  0  0  0  0  0
    3.0002    2.5168    0.0000 C   0  0  0  0  0  0  0  0  0  0  0  0
    4.5825    1.8123    0.0000 C   0  0  0  0  0  0  0  0  0  0  0  0
    3.4069    3.4304    0.0000 C   0  0  0  0  0  0  0  0  0  0  0  0
    4.9892    2.7259    0.0000 C   0  0  0  0  0  0  0  0  0  0  0  0
    3.7690   -0.0147    0.0000 C   0  0  0  0  0  0  0  0  0  0  0  0
    3.4030   -3.0536    0.0000 C   0  0  0  0  0  0  0  0  0  0  0  0
    5.1350   -3.0536    0.0000 C   0  0  0  0  0  0  0  0  0  0  0  0
    5.0780   -0.9658    0.0000 C   0  0  0  0  0  0  0  0  0  0  0  0
    3.4030   -4.0536    0.0000 C   0  0  0  0  0  0  0  0  0  0  0  0
    5.1350   -4.0536    0.0000 C   0  0  0  0  0  0  0  0  0  0  0  0
    4.2690   -4.5536    0.0000 C   0  0  0  0  0  0  0  0  0  0  0  0
    2.3836    2.4520    0.0000 H   0  0  0  0  0  0  0  0  0  0  0  0
    4.9469    1.3108    0.0000 H   0  0  0  0  0  0  0  0  0  0  0  0
    3.0425    3.9320    0.0000 H   0  0  0  0  0  0  0  0  0  0  0  0
    5.6058    2.7907    0.0000 H   0  0  0  0  0  0  0  0  0  0  0  0
    2.5646    0.7295    0.0000 H   0  0  0  0  0  0  0  0  0  0  0  0
    2.8660   -2.7436    0.0000 H   0  0  0  0  0  0  0  0  0  0  0  0
    5.6720   -2.7436    0.0000 H   0  0  0  0  0  0  0  0  0  0  0  0
    5.6677   -1.1574    0.0000 H   0  0  0  0  0  0  0  0  0  0  0  0
    5.6720   -4.3636    0.0000 H   0  0  0  0  0  0  0  0  0  0  0  0
    4.8505    5.8636    0.0000 H   0  0  0  0  0  0  0  0  0  0  0  0
    5.8315    5.4268    0.0000 H   0  0  0  0  0  0  0  0  0  0  0  0
    2.0000   -4.2436    0.0000 H   0  0  0  0  0  0  0  0  0  0  0  0
    4.8059   -5.8636    0.0000 H   0  0  0  0  0  0  0  0  0  0  0  0
  1  3  2  0  0  0  0
  1  4  2  0  0  0  0
  1  9  1  0  0  0  0
  1 11  1  0  0  0  0
  2 13  1  0  0  0  0
  2 18  1  0  0  0  0
  5 22  1  0  0  0  0
  5 36  1  0  0  0  0
  6 24  1  0  0  0  0
  6 37  1  0  0  0  0
  7 10  1  0  0  0  0
  7 18  1  0  0  0  0
  7 29  1  0  0  0  0
  8 18  2  0  0  0  0
  8 21  1  0  0  0  0
  9 34  1  0  0  0  0
  9 35  1  0  0  0  0
 10 14  2  0  0  0  0
 10 15  1  0  0  0  0
 11 16  2  0  0  0  0
 11 17  1  0  0  0  0
 12 13  1  0  0  0  0
 12 19  2  0  0  0  0
 12 20  1  0  0  0  0
 13 21  2  0  0  0  0
 14 16  1  0  0  0  0
 14 25  1  0  0  0  0
 15 17  2  0  0  0  0
 15 26  1  0  0  0  0
 16 27  1  0  0  0  0
 17 28  1  0  0  0  0
 19 22  1  0  0  0  0
 19 30  1  0  0  0  0
 20 23  2  0  0  0  0
 20 31  1  0  0  0  0
 21 32  1  0  0  0  0
 22 24  2  0  0  0  0
 23 24  1  0  0  0  0
 23 33  1  0  0  0  0
M  END
> <PUBCHEM_COMPOUND_CID>
52941849

> <PUBCHEM_COMPOUND_CANONICALIZED>
1

> <PUBCHEM_CACTVS_COMPLEXITY>
518

> <PUBCHEM_CACTVS_HBOND_ACCEPTOR>
8

> <PUBCHEM_CACTVS_HBOND_DONOR>
4

> <PUBCHEM_CACTVS_ROTATABLE_BOND>
4

> <PUBCHEM_CACTVS_SUBSKEYS>
AAADccBzOABAAAAAAAAAAAAAAAAAAWAAAAAwYAAAAAAAAAAB0AAAHgQQSAAADAzB2gQ915LIFkKoArR3dHTCiDk/YiAJ2Bmv7MmPJjLCvbuNcQls1hNZ+afa/L7OIAQBAAAAQABACAIAAACAAAAAAAAAAA==

> <PUBCHEM_IUPAC_OPENEYE_NAME>
4-[[5-(3,4-dihydroxyphenyl)oxazol-2-yl]amino]benzenesulfonamide

> <PUBCHEM_IUPAC_CAS_NAME>
4-[[5-(3,4-dihydroxyphenyl)-2-oxazolyl]amino]benzenesulfonamide

> <PUBCHEM_IUPAC_NAME_MARKUP>
4-[[5-(3,4-dihydroxyphenyl)-1,3-oxazol-2-yl]amino]benzenesulfonamide

> <PUBCHEM_IUPAC_NAME>
4-[[5-(3,4-dihydroxyphenyl)-1,3-oxazol-2-yl]amino]benzenesulfonamide

> <PUBCHEM_IUPAC_SYSTEMATIC_NAME>
4-[[5-[3,4-bis(oxidanyl)phenyl]-1,3-oxazol-2-yl]amino]benzenesulfonamide

> <PUBCHEM_IUPAC_TRADITIONAL_NAME>
4-[[5-(3,4-dihydroxyphenyl)oxazol-2-yl]amino]benzenesulfonamide

> <PUBCHEM_IUPAC_INCHI>
InChI=1S/C15H13N3O5S/c16-24(21,22)11-4-2-10(3-5-11)18-15-17-8-14(23-15)9-1-6-12(19)13(20)7-9/h1-8,19-20H,(H,17,18)(H2,16,21,22)

> <PUBCHEM_IUPAC_INCHIKEY>
OOPUEIPMZHMRKF-UHFFFAOYSA-N

> <PUBCHEM_XLOGP3_AA>
1.7

> <PUBCHEM_EXACT_MASS>
347.05759170

> <PUBCHEM_MOLECULAR_FORMULA>
C15H13N3O5S

> <PUBCHEM_MOLECULAR_WEIGHT>
347.3

> <PUBCHEM_SMILES>
C1=CC(=CC=C1NC2=NC=C(O2)C3=CC(=C(C=C3)O)O)S(=O)(=O)N

> <PUBCHEM_OPENEYE_CAN_SMILES>
C1=CC(=CC=C1NC2=NC=C(O2)C3=CC(=C(C=C3)O)O)S(=O)(=O)N

> <PUBCHEM_OPENEYE_ISO_SMILES>
C1=CC(=CC=C1NC2=NC=C(O2)C3=CC(=C(C=C3)O)O)S(=O)(=O)N

> <PUBCHEM_CACTVS_TPSA>
147

> <PUBCHEM_MONOISOTOPIC_WEIGHT>
347.05759170

> <PUBCHEM_TOTAL_CHARGE>
0

> <PUBCHEM_HEAVY_ATOM_COUNT>
24

> <PUBCHEM_ATOM_DEF_STEREO_COUNT>
0

> <PUBCHEM_ATOM_UDEF_STEREO_COUNT>
0

> <PUBCHEM_BOND_DEF_STEREO_COUNT>
0

> <PUBCHEM_BOND_UDEF_STEREO_COUNT>
0

> <PUBCHEM_ISOTOPIC_ATOM_COUNT>
0

> <PUBCHEM_COMPONENT_COUNT>
1

> <PUBCHEM_CACTVS_TAUTO_COUNT>
-1

> <PUBCHEM_COORDINATE_TYPE>
1
5
255

> <PUBCHEM_BONDANNOTATIONS>
10  14  8
10  15  8
11  16  8
11  17  8
12  19  8
12  20  8
13  21  8
14  16  8
15  17  8
19  22  8
2  13  8
2  18  8
20  23  8
22  24  8
23  24  8
8  18  8
8  21  8

$$$$
