49830467
  -OEChem-03202503362D

 39 42  0     1  0  0  0  0  0999 V2000
    2.6166    3.2407    0.0000 O   0  0  0  0  0  0  0  0  0  0  0  0
    6.0069    2.0136    0.0000 O   0  0  0  0  0  0  0  0  0  0  0  0
    5.9950   -1.3182    0.0000 O   0  0  0  0  0  0  0  0  0  0  0  0
    4.4246    1.3091    0.0000 N   0  0  0  0  0  0  0  0  0  0  0  0
    5.3259   -0.5750    0.0000 N   0  0  0  0  0  0  0  0  0  0  0  0
   10.4528   -2.7162    0.0000 N   0  0  0  0  0  0  0  0  0  0  0  0
   11.0364   -1.9114    0.0000 N   0  0  0  0  0  0  0  0  0  0  0  0
    3.0233    2.3271    0.0000 C   0  0  3  0  0  0  0  0  0  0  0  0
    2.4356    1.5181    0.0000 C   0  0  0  0  0  0  0  0  0  0  0  0
    2.8423    0.6046    0.0000 C   0  0  0  0  0  0  0  0  0  0  0  0
    4.0179    2.2226    0.0000 C   0  0  0  0  0  0  0  0  0  0  0  0
    3.8368    0.5001    0.0000 C   0  0  0  0  0  0  0  0  0  0  0  0
    5.4191    1.2045    0.0000 C   0  0  0  0  0  0  0  0  0  0  0  0
    5.8259    0.2910    0.0000 C   0  0  0  0  0  0  0  0  0  0  0  0
    6.8040    0.0831    0.0000 C   0  0  0  0  0  0  0  0  0  0  0  0
    6.9085   -0.9114    0.0000 C   0  0  0  0  0  0  0  0  0  0  0  0
    7.7746   -1.4114    0.0000 C   0  0  0  0  0  0  0  0  0  0  0  0
    9.5066   -1.4114    0.0000 C   0  0  0  0  0  0  0  0  0  0  0  0
    8.6406   -0.9114    0.0000 C   0  0  0  0  0  0  0  0  0  0  0  0
    9.5066   -2.4114    0.0000 C   0  0  0  0  0  0  0  0  0  0  0  0
    7.7746   -2.4114    0.0000 C   0  0  0  0  0  0  0  0  0  0  0  0
    8.6406   -2.9114    0.0000 C   0  0  0  0  0  0  0  0  0  0  0  0
   10.4528   -1.1067    0.0000 C   0  0  0  0  0  0  0  0  0  0  0  0
    2.4067    2.3920    0.0000 H   0  0  0  0  0  0  0  0  0  0  0  0
    2.0049    1.9641    0.0000 H   0  0  0  0  0  0  0  0  0  0  0  0
    1.9216    1.1714    0.0000 H   0  0  0  0  0  0  0  0  0  0  0  0
    2.2407    0.4546    0.0000 H   0  0  0  0  0  0  0  0  0  0  0  0
    2.8855   -0.0139    0.0000 H   0  0  0  0  0  0  0  0  0  0  0  0
    4.6194    2.3726    0.0000 H   0  0  0  0  0  0  0  0  0  0  0  0
    3.9746    2.8411    0.0000 H   0  0  0  0  0  0  0  0  0  0  0  0
    3.6659   -0.0959    0.0000 H   0  0  0  0  0  0  0  0  0  0  0  0
    4.3941    0.2283    0.0000 H   0  0  0  0  0  0  0  0  0  0  0  0
    2.0000    3.3055    0.0000 H   0  0  0  0  0  0  0  0  0  0  0  0
    7.2648    0.4979    0.0000 H   0  0  0  0  0  0  0  0  0  0  0  0
    8.6406   -0.2914    0.0000 H   0  0  0  0  0  0  0  0  0  0  0  0
    7.2376   -2.7214    0.0000 H   0  0  0  0  0  0  0  0  0  0  0  0
    8.6406   -3.5314    0.0000 H   0  0  0  0  0  0  0  0  0  0  0  0
   10.6454   -0.5174    0.0000 H   0  0  0  0  0  0  0  0  0  0  0  0
   10.6454   -3.3055    0.0000 H   0  0  0  0  0  0  0  0  0  0  0  0
  1  8  1  0  0  0  0
  1 33  1  0  0  0  0
  2 13  2  0  0  0  0
  3  5  1  0  0  0  0
  3 16  1  0  0  0  0
  4 11  1  0  0  0  0
  4 12  1  0  0  0  0
  4 13  1  0  0  0  0
  5 14  2  0  0  0  0
  6  7  1  0  0  0  0
  6 20  1  0  0  0  0
  6 39  1  0  0  0  0
  7 23  2  0  0  0  0
  8  9  1  0  0  0  0
  8 11  1  0  0  0  0
  8 24  1  0  0  0  0
  9 10  1  0  0  0  0
  9 25  1  0  0  0  0
  9 26  1  0  0  0  0
 10 12  1  0  0  0  0
 10 27  1  0  0  0  0
 10 28  1  0  0  0  0
 11 29  1  0  0  0  0
 11 30  1  0  0  0  0
 12 31  1  0  0  0  0
 12 32  1  0  0  0  0
 13 14  1  0  0  0  0
 14 15  1  0  0  0  0
 15 16  2  0  0  0  0
 15 34  1  0  0  0  0
 16 17  1  0  0  0  0
 17 19  2  0  0  0  0
 17 21  1  0  0  0  0
 18 19  1  0  0  0  0
 18 20  2  0  0  0  0
 18 23  1  0  0  0  0
 19 35  1  0  0  0  0
 20 22  1  0  0  0  0
 21 22  2  0  0  0  0
 21 36  1  0  0  0  0
 22 37  1  0  0  0  0
 23 38  1  0  0  0  0
M  END
> <PUBCHEM_COMPOUND_CID>
49830467

> <PUBCHEM_COMPOUND_CANONICALIZED>
1

> <PUBCHEM_CACTVS_COMPLEXITY>
449

> <PUBCHEM_CACTVS_HBOND_ACCEPTOR>
5

> <PUBCHEM_CACTVS_HBOND_DONOR>
2

> <PUBCHEM_CACTVS_ROTATABLE_BOND>
2

> <PUBCHEM_CACTVS_SUBSKEYS>
AAADceB7sAAAAAAAAAAAAAAAAAAAAWLAAAA8QAAAAAAAAFgB/AAAHgAcCAAADBzhngY8xPNzAgCrA7V3UgCSBAAmogA4uSG+bNoKdrqA1dOU9Yhm3hmYyce/2eGeCAACAAACAAAQAAQAAAQAAAAAAAAAAA==

> <PUBCHEM_IUPAC_OPENEYE_NAME>
(3-hydroxy-1-piperidyl)-[5-(1H-indazol-5-yl)isoxazol-3-yl]methanone

> <PUBCHEM_IUPAC_CAS_NAME>
(3-hydroxy-1-piperidinyl)-[5-(1H-indazol-5-yl)-3-isoxazolyl]methanone

> <PUBCHEM_IUPAC_NAME_MARKUP>
(3-hydroxypiperidin-1-yl)-[5-(1<I>H</I>-indazol-5-yl)-1,2-oxazol-3-yl]methanone

> <PUBCHEM_IUPAC_NAME>
(3-hydroxypiperidin-1-yl)-[5-(1H-indazol-5-yl)-1,2-oxazol-3-yl]methanone

> <PUBCHEM_IUPAC_SYSTEMATIC_NAME>
[5-(1H-indazol-5-yl)-1,2-oxazol-3-yl]-(3-oxidanylpiperidin-1-yl)methanone

> <PUBCHEM_IUPAC_TRADITIONAL_NAME>
(3-hydroxypiperidino)-[5-(1H-indazol-5-yl)isoxazol-3-yl]methanone

> <PUBCHEM_IUPAC_INCHI>
InChI=1S/C16H16N4O3/c21-12-2-1-5-20(9-12)16(22)14-7-15(23-19-14)10-3-4-13-11(6-10)8-17-18-13/h3-4,6-8,12,21H,1-2,5,9H2,(H,17,18)

> <PUBCHEM_IUPAC_INCHIKEY>
GNZPMJDEUIVORU-UHFFFAOYSA-N

> <PUBCHEM_XLOGP3_AA>
1.3

> <PUBCHEM_EXACT_MASS>
312.12224039

> <PUBCHEM_MOLECULAR_FORMULA>
C16H16N4O3

> <PUBCHEM_MOLECULAR_WEIGHT>
312.32

> <PUBCHEM_SMILES>
C1CC(CN(C1)C(=O)C2=NOC(=C2)C3=CC4=C(C=C3)NN=C4)O

> <PUBCHEM_OPENEYE_CAN_SMILES>
C1CC(CN(C1)C(=O)C2=NOC(=C2)C3=CC4=C(C=C3)NN=C4)O

> <PUBCHEM_OPENEYE_ISO_SMILES>
C1CC(CN(C1)C(=O)C2=NOC(=C2)C3=CC4=C(C=C3)NN=C4)O

> <PUBCHEM_CACTVS_TPSA>
95.3

> <PUBCHEM_MONOISOTOPIC_WEIGHT>
312.12224039

> <PUBCHEM_TOTAL_CHARGE>
0

> <PUBCHEM_HEAVY_ATOM_COUNT>
23

> <PUBCHEM_ATOM_DEF_STEREO_COUNT>
0

> <PUBCHEM_ATOM_UDEF_STEREO_COUNT>
1

> <PUBCHEM_BOND_DEF_STEREO_COUNT>
0

> <PUBCHEM_BOND_UDEF_STEREO_COUNT>
0

> <PUBCHEM_ISOTOPIC_ATOM_COUNT>
0

> <PUBCHEM_COMPONENT_COUNT>
1

> <PUBCHEM_CACTVS_TAUTO_COUNT>
-1

> <PUBCHEM_COORDINATE_TYPE>
1
5
255

> <PUBCHEM_BONDANNOTATIONS>
8  1  3
14  15  8
15  16  8
17  19  8
17  21  8
18  19  8
18  20  8
18  23  8
20  22  8
21  22  8
3  16  8
3  5  8
5  14  8
6  20  8
6  7  8
7  23  8

$$$$
