49830801
  -OEChem-03202501552D

 46 50  0     0  0  0  0  0  0999 V2000
    3.9694   -2.1153    0.0000 F   0  0  0  0  0  0  0  0  0  0  0  0
    7.3578   -2.8355    0.0000 F   0  0  0  0  0  0  0  0  0  0  0  0
   10.3017   -0.3322    0.0000 O   0  0  0  0  0  0  0  0  0  0  0  0
    2.0000    0.9058    0.0000 O   0  0  0  0  0  0  0  0  0  0  0  0
    7.0878    1.3355    0.0000 N   0  0  0  0  0  0  0  0  0  0  0  0
    3.5762    1.2423    0.0000 N   0  0  0  0  0  0  0  0  0  0  0  0
    6.2218    0.8355    0.0000 N   0  0  0  0  0  0  0  0  0  0  0  0
    8.6177    1.8355    0.0000 N   0  0  0  0  0  0  0  0  0  0  0  0
    3.4071   -0.3669    0.0000 N   0  0  0  0  0  0  0  0  0  0  0  0
    8.0341    2.6402    0.0000 N   0  0  0  0  0  0  0  0  0  0  0  0
    9.3232   -0.1259    0.0000 C   0  0  0  0  0  0  0  0  0  0  0  0
    8.3447    0.0803    0.0000 C   0  0  0  0  0  0  0  0  0  0  0  0
    8.0341    1.0308    0.0000 C   0  0  0  0  0  0  0  0  0  0  0  0
    4.4898    0.8355    0.0000 C   0  0  0  0  0  0  0  0  0  0  0  0
    9.1170   -1.1045    0.0000 C   0  0  0  0  0  0  0  0  0  0  0  0
    9.5294    0.8526    0.0000 C   0  0  0  0  0  0  0  0  0  0  0  0
    5.3558    1.3355    0.0000 C   0  0  0  0  0  0  0  0  0  0  0  0
    7.0878    2.3355    0.0000 C   0  0  0  0  0  0  0  0  0  0  0  0
    4.3852   -0.1590    0.0000 C   0  0  0  0  0  0  0  0  0  0  0  0
    2.9071    0.4991    0.0000 C   0  0  0  0  0  0  0  0  0  0  0  0
    5.3558    2.3355    0.0000 C   0  0  0  0  0  0  0  0  0  0  0  0
    6.2218    2.8355    0.0000 C   0  0  0  0  0  0  0  0  0  0  0  0
    5.1284   -0.8281    0.0000 C   0  0  0  0  0  0  0  0  0  0  0  0
    3.0769    2.1019    0.0000 C   0  0  0  0  0  0  0  0  0  0  0  0
    2.1048    1.8943    0.0000 C   0  0  0  0  0  0  0  0  0  0  0  0
    4.9205   -1.8063    0.0000 C   0  0  0  0  0  0  0  0  0  0  0  0
    6.0794   -0.5191    0.0000 C   0  0  0  0  0  0  0  0  0  0  0  0
    5.6636   -2.4754    0.0000 C   0  0  0  0  0  0  0  0  0  0  0  0
    6.8226   -1.1882    0.0000 C   0  0  0  0  0  0  0  0  0  0  0  0
    6.6147   -2.1664    0.0000 C   0  0  0  0  0  0  0  0  0  0  0  0
    7.7309   -0.0071    0.0000 H   0  0  0  0  0  0  0  0  0  0  0  0
    8.3242   -0.5394    0.0000 H   0  0  0  0  0  0  0  0  0  0  0  0
    8.5103   -0.9766    0.0000 H   0  0  0  0  0  0  0  0  0  0  0  0
    8.9892   -1.7111    0.0000 H   0  0  0  0  0  0  0  0  0  0  0  0
    9.7237   -1.2323    0.0000 H   0  0  0  0  0  0  0  0  0  0  0  0
   10.1361    0.7247    0.0000 H   0  0  0  0  0  0  0  0  0  0  0  0
    9.6573    1.4592    0.0000 H   0  0  0  0  0  0  0  0  0  0  0  0
    8.9228    0.9804    0.0000 H   0  0  0  0  0  0  0  0  0  0  0  0
    4.8188    2.6455    0.0000 H   0  0  0  0  0  0  0  0  0  0  0  0
    6.2218    3.4555    0.0000 H   0  0  0  0  0  0  0  0  0  0  0  0
   10.4943   -0.9215    0.0000 H   0  0  0  0  0  0  0  0  0  0  0  0
    3.3281    2.6687    0.0000 H   0  0  0  0  0  0  0  0  0  0  0  0
    1.6440    2.3092    0.0000 H   0  0  0  0  0  0  0  0  0  0  0  0
    6.2083    0.0873    0.0000 H   0  0  0  0  0  0  0  0  0  0  0  0
    5.5347   -3.0819    0.0000 H   0  0  0  0  0  0  0  0  0  0  0  0
    7.4122   -0.9967    0.0000 H   0  0  0  0  0  0  0  0  0  0  0  0
  1 26  1  0  0  0  0
  2 30  1  0  0  0  0
  3 11  1  0  0  0  0
  3 41  1  0  0  0  0
  4 20  1  0  0  0  0
  4 25  1  0  0  0  0
  5  7  1  0  0  0  0
  5 13  1  0  0  0  0
  5 18  1  0  0  0  0
  6 14  1  0  0  0  0
  6 20  1  0  0  0  0
  6 24  1  0  0  0  0
  7 17  2  0  0  0  0
  8 10  1  0  0  0  0
  8 13  2  0  0  0  0
  9 19  1  0  0  0  0
  9 20  2  0  0  0  0
 10 18  2  0  0  0  0
 11 12  1  0  0  0  0
 11 15  1  0  0  0  0
 11 16  1  0  0  0  0
 12 13  1  0  0  0  0
 12 31  1  0  0  0  0
 12 32  1  0  0  0  0
 14 17  1  0  0  0  0
 14 19  2  0  0  0  0
 15 33  1  0  0  0  0
 15 34  1  0  0  0  0
 15 35  1  0  0  0  0
 16 36  1  0  0  0  0
 16 37  1  0  0  0  0
 16 38  1  0  0  0  0
 17 21  1  0  0  0  0
 18 22  1  0  0  0  0
 19 23  1  0  0  0  0
 21 22  2  0  0  0  0
 21 39  1  0  0  0  0
 22 40  1  0  0  0  0
 23 26  2  0  0  0  0
 23 27  1  0  0  0  0
 24 25  2  0  0  0  0
 24 42  1  0  0  0  0
 25 43  1  0  0  0  0
 26 28  1  0  0  0  0
 27 29  2  0  0  0  0
 27 44  1  0  0  0  0
 28 30  2  0  0  0  0
 28 45  1  0  0  0  0
 29 30  1  0  0  0  0
 29 46  1  0  0  0  0
M  END
> <PUBCHEM_COMPOUND_CID>
49830801

> <PUBCHEM_COMPOUND_CANONICALIZED>
1

> <PUBCHEM_CACTVS_COMPLEXITY>
630

> <PUBCHEM_CACTVS_HBOND_ACCEPTOR>
8

> <PUBCHEM_CACTVS_HBOND_DONOR>
1

> <PUBCHEM_CACTVS_ROTATABLE_BOND>
4

> <PUBCHEM_CACTVS_SUBSKEYS>
AAADceB7sYAAAAAAAAAAAAAAAAAAAWLFgAA8QAAAAAAWAFgB/gAAHwAICAAADEzhnw4/tJ8MHkCqAz539ASSjC87UqAd2CC7dJiOaOLA2bGd4AhqjgLYyCcQgMAOAAAAAAAAAAAAAAAAAAAAAAAAAAAAAA==

> <PUBCHEM_IUPAC_OPENEYE_NAME>
1-[6-[6-(2,4-difluorophenyl)imidazo[2,1-b]oxazol-5-yl]-[1,2,4]triazolo[4,3-b]pyridazin-3-yl]-2-methyl-propan-2-ol

> <PUBCHEM_IUPAC_CAS_NAME>
1-[6-[6-(2,4-difluorophenyl)-5-imidazo[2,1-b]oxazolyl]-[1,2,4]triazolo[4,3-b]pyridazin-3-yl]-2-methyl-2-propanol

> <PUBCHEM_IUPAC_NAME_MARKUP>
1-[6-[6-(2,4-difluorophenyl)imidazo[2,1-b][1,3]oxazol-5-yl]-[1,2,4]triazolo[4,3-b]pyridazin-3-yl]-2-methylpropan-2-ol

> <PUBCHEM_IUPAC_NAME>
1-[6-[6-(2,4-difluorophenyl)imidazo[2,1-b][1,3]oxazol-5-yl]-[1,2,4]triazolo[4,3-b]pyridazin-3-yl]-2-methylpropan-2-ol

> <PUBCHEM_IUPAC_SYSTEMATIC_NAME>
1-[6-[6-[2,4-bis(fluoranyl)phenyl]imidazo[2,1-b][1,3]oxazol-5-yl]-[1,2,4]triazolo[4,3-b]pyridazin-3-yl]-2-methyl-propan-2-ol

> <PUBCHEM_IUPAC_TRADITIONAL_NAME>
1-[6-[6-(2,4-difluorophenyl)imidazo[2,1-b]oxazol-5-yl]-[1,2,4]triazolo[4,3-b]pyridazin-3-yl]-2-methyl-propan-2-ol

> <PUBCHEM_IUPAC_INCHI>
InChI=1S/C20H16F2N6O2/c1-20(2,29)10-16-25-24-15-6-5-14(26-28(15)16)18-17(23-19-27(18)7-8-30-19)12-4-3-11(21)9-13(12)22/h3-9,29H,10H2,1-2H3

> <PUBCHEM_IUPAC_INCHIKEY>
QKFXSCNWJZKJSJ-UHFFFAOYSA-N

> <PUBCHEM_XLOGP3_AA>
2.9

> <PUBCHEM_EXACT_MASS>
410.13028010

> <PUBCHEM_MOLECULAR_FORMULA>
C20H16F2N6O2

> <PUBCHEM_MOLECULAR_WEIGHT>
410.4

> <PUBCHEM_SMILES>
CC(C)(CC1=NN=C2N1N=C(C=C2)C3=C(N=C4N3C=CO4)C5=C(C=C(C=C5)F)F)O

> <PUBCHEM_OPENEYE_CAN_SMILES>
CC(C)(CC1=NN=C2N1N=C(C=C2)C3=C(N=C4N3C=CO4)C5=C(C=C(C=C5)F)F)O

> <PUBCHEM_OPENEYE_ISO_SMILES>
CC(C)(CC1=NN=C2N1N=C(C=C2)C3=C(N=C4N3C=CO4)C5=C(C=C(C=C5)F)F)O

> <PUBCHEM_CACTVS_TPSA>
93.8

> <PUBCHEM_MONOISOTOPIC_WEIGHT>
410.13028010

> <PUBCHEM_TOTAL_CHARGE>
0

> <PUBCHEM_HEAVY_ATOM_COUNT>
30

> <PUBCHEM_ATOM_DEF_STEREO_COUNT>
0

> <PUBCHEM_ATOM_UDEF_STEREO_COUNT>
0

> <PUBCHEM_BOND_DEF_STEREO_COUNT>
0

> <PUBCHEM_BOND_UDEF_STEREO_COUNT>
0

> <PUBCHEM_ISOTOPIC_ATOM_COUNT>
0

> <PUBCHEM_COMPONENT_COUNT>
1

> <PUBCHEM_CACTVS_TAUTO_COUNT>
-1

> <PUBCHEM_COORDINATE_TYPE>
1
5
255

> <PUBCHEM_BONDANNOTATIONS>
10  18  8
14  19  8
17  21  8
18  22  8
21  22  8
23  26  8
23  27  8
24  25  8
26  28  8
27  29  8
28  30  8
29  30  8
4  20  8
4  25  8
5  13  8
5  18  8
5  7  8
6  14  8
6  20  8
6  24  8
7  17  8
8  10  8
8  13  8
9  19  8
9  20  8

$$$$
