10592750
  -OEChem-03202505262D

 38 41  0     0  0  0  0  0  0999 V2000
    5.6622   -4.3874    0.0000 F   0  0  0  0  0  0  0  0  0  0  0  0
    8.5133    4.3874    0.0000 F   0  0  0  0  0  0  0  0  0  0  0  0
    5.1622    1.1514    0.0000 N   0  0  0  0  0  0  0  0  0  0  0  0
    6.4712    0.2003    0.0000 N   0  0  0  0  0  0  0  0  0  0  0  0
    2.0000   -0.7267    0.0000 N   0  0  0  0  0  0  0  0  0  0  0  0
    4.8532    0.2003    0.0000 C   0  0  0  0  0  0  0  0  0  0  0  0
    5.6622   -0.3875    0.0000 C   0  0  0  0  0  0  0  0  0  0  0  0
    6.1622    1.1514    0.0000 C   0  0  0  0  0  0  0  0  0  0  0  0
    5.6622   -1.3874    0.0000 C   0  0  0  0  0  0  0  0  0  0  0  0
    3.9021   -0.1087    0.0000 C   0  0  0  0  0  0  0  0  0  0  0  0
    6.7500    1.9604    0.0000 C   0  0  0  0  0  0  0  0  0  0  0  0
    6.5282   -1.8874    0.0000 C   0  0  0  0  0  0  0  0  0  0  0  0
    4.7962   -1.8874    0.0000 C   0  0  0  0  0  0  0  0  0  0  0  0
    3.1590    0.5604    0.0000 C   0  0  0  0  0  0  0  0  0  0  0  0
    3.6942   -1.0868    0.0000 C   0  0  0  0  0  0  0  0  0  0  0  0
    6.3432    2.8739    0.0000 C   0  0  0  0  0  0  0  0  0  0  0  0
    7.7445    1.8559    0.0000 C   0  0  0  0  0  0  0  0  0  0  0  0
    6.5282   -2.8874    0.0000 C   0  0  0  0  0  0  0  0  0  0  0  0
    4.7962   -2.8874    0.0000 C   0  0  0  0  0  0  0  0  0  0  0  0
    6.9310    3.6830    0.0000 C   0  0  0  0  0  0  0  0  0  0  0  0
    8.3323    2.6649    0.0000 C   0  0  0  0  0  0  0  0  0  0  0  0
    5.6622   -3.3874    0.0000 C   0  0  0  0  0  0  0  0  0  0  0  0
    2.2079    0.2514    0.0000 C   0  0  0  0  0  0  0  0  0  0  0  0
    2.7431   -1.3958    0.0000 C   0  0  0  0  0  0  0  0  0  0  0  0
    7.9255    3.5784    0.0000 C   0  0  0  0  0  0  0  0  0  0  0  0
    4.7978    1.6530    0.0000 H   0  0  0  0  0  0  0  0  0  0  0  0
    7.0652   -1.5774    0.0000 H   0  0  0  0  0  0  0  0  0  0  0  0
    4.2592   -1.5774    0.0000 H   0  0  0  0  0  0  0  0  0  0  0  0
    3.2879    1.1669    0.0000 H   0  0  0  0  0  0  0  0  0  0  0  0
    4.1550   -1.5017    0.0000 H   0  0  0  0  0  0  0  0  0  0  0  0
    5.7266    2.9388    0.0000 H   0  0  0  0  0  0  0  0  0  0  0  0
    7.9967    1.2895    0.0000 H   0  0  0  0  0  0  0  0  0  0  0  0
    7.0652   -3.1974    0.0000 H   0  0  0  0  0  0  0  0  0  0  0  0
    4.2592   -3.1974    0.0000 H   0  0  0  0  0  0  0  0  0  0  0  0
    6.6788    4.2494    0.0000 H   0  0  0  0  0  0  0  0  0  0  0  0
    8.9489    2.6001    0.0000 H   0  0  0  0  0  0  0  0  0  0  0  0
    1.7472    0.6663    0.0000 H   0  0  0  0  0  0  0  0  0  0  0  0
    2.6142   -2.0023    0.0000 H   0  0  0  0  0  0  0  0  0  0  0  0
  1 22  1  0  0  0  0
  2 25  1  0  0  0  0
  3  6  1  0  0  0  0
  3  8  1  0  0  0  0
  3 26  1  0  0  0  0
  4  7  1  0  0  0  0
  4  8  2  0  0  0  0
  5 23  2  0  0  0  0
  5 24  1  0  0  0  0
  6  7  2  0  0  0  0
  6 10  1  0  0  0  0
  7  9  1  0  0  0  0
  8 11  1  0  0  0  0
  9 12  2  0  0  0  0
  9 13  1  0  0  0  0
 10 14  2  0  0  0  0
 10 15  1  0  0  0  0
 11 16  2  0  0  0  0
 11 17  1  0  0  0  0
 12 18  1  0  0  0  0
 12 27  1  0  0  0  0
 13 19  2  0  0  0  0
 13 28  1  0  0  0  0
 14 23  1  0  0  0  0
 14 29  1  0  0  0  0
 15 24  2  0  0  0  0
 15 30  1  0  0  0  0
 16 20  1  0  0  0  0
 16 31  1  0  0  0  0
 17 21  2  0  0  0  0
 17 32  1  0  0  0  0
 18 22  2  0  0  0  0
 18 33  1  0  0  0  0
 19 22  1  0  0  0  0
 19 34  1  0  0  0  0
 20 25  2  0  0  0  0
 20 35  1  0  0  0  0
 21 25  1  0  0  0  0
 21 36  1  0  0  0  0
 23 37  1  0  0  0  0
 24 38  1  0  0  0  0
M  END
> <PUBCHEM_COMPOUND_CID>
10592750

> <PUBCHEM_COMPOUND_CANONICALIZED>
1

> <PUBCHEM_CACTVS_COMPLEXITY>
413

> <PUBCHEM_CACTVS_HBOND_ACCEPTOR>
4

> <PUBCHEM_CACTVS_HBOND_DONOR>
1

> <PUBCHEM_CACTVS_ROTATABLE_BOND>
3

> <PUBCHEM_CACTVS_SUBSKEYS>
AAADccB7AYAAAAAAAAAAAAAAAAAAAWAAAAA8YIAAAAAAAAAB9AAAHQAQAAAADAjBHww9kJbJkACgAzZnZACCgC2xEqAJ2SA4dJiIaOLAmZGUIAhogALIyCcQgMAOAAAAAAAAAAAAAAAAAAAAAAAAAAAAAA==

> <PUBCHEM_IUPAC_OPENEYE_NAME>
4-[2,4-bis(4-fluorophenyl)-1H-imidazol-5-yl]pyridine

> <PUBCHEM_IUPAC_CAS_NAME>
4-[2,4-bis(4-fluorophenyl)-1H-imidazol-5-yl]pyridine

> <PUBCHEM_IUPAC_NAME_MARKUP>
4-[2,4-bis(4-fluorophenyl)-1<I>H</I>-imidazol-5-yl]pyridine

> <PUBCHEM_IUPAC_NAME>
4-[2,4-bis(4-fluorophenyl)-1H-imidazol-5-yl]pyridine

> <PUBCHEM_IUPAC_SYSTEMATIC_NAME>
4-[2,4-bis(4-fluorophenyl)-1H-imidazol-5-yl]pyridine

> <PUBCHEM_IUPAC_TRADITIONAL_NAME>
4-[2,4-bis(4-fluorophenyl)-1H-imidazol-5-yl]pyridine

> <PUBCHEM_IUPAC_INCHI>
InChI=1S/C20H13F2N3/c21-16-5-1-13(2-6-16)18-19(14-9-11-23-12-10-14)25-20(24-18)15-3-7-17(22)8-4-15/h1-12H,(H,24,25)

> <PUBCHEM_IUPAC_INCHIKEY>
UPYHVTCMTMZKAX-UHFFFAOYSA-N

> <PUBCHEM_XLOGP3_AA>
4.2

> <PUBCHEM_EXACT_MASS>
333.10775375

> <PUBCHEM_MOLECULAR_FORMULA>
C20H13F2N3

> <PUBCHEM_MOLECULAR_WEIGHT>
333.3

> <PUBCHEM_SMILES>
C1=CC(=CC=C1C2=C(NC(=N2)C3=CC=C(C=C3)F)C4=CC=NC=C4)F

> <PUBCHEM_OPENEYE_CAN_SMILES>
C1=CC(=CC=C1C2=C(NC(=N2)C3=CC=C(C=C3)F)C4=CC=NC=C4)F

> <PUBCHEM_OPENEYE_ISO_SMILES>
C1=CC(=CC=C1C2=C(NC(=N2)C3=CC=C(C=C3)F)C4=CC=NC=C4)F

> <PUBCHEM_CACTVS_TPSA>
41.6

> <PUBCHEM_MONOISOTOPIC_WEIGHT>
333.10775375

> <PUBCHEM_TOTAL_CHARGE>
0

> <PUBCHEM_HEAVY_ATOM_COUNT>
25

> <PUBCHEM_ATOM_DEF_STEREO_COUNT>
0

> <PUBCHEM_ATOM_UDEF_STEREO_COUNT>
0

> <PUBCHEM_BOND_DEF_STEREO_COUNT>
0

> <PUBCHEM_BOND_UDEF_STEREO_COUNT>
0

> <PUBCHEM_ISOTOPIC_ATOM_COUNT>
0

> <PUBCHEM_COMPONENT_COUNT>
1

> <PUBCHEM_CACTVS_TAUTO_COUNT>
-1

> <PUBCHEM_COORDINATE_TYPE>
1
5
255

> <PUBCHEM_BONDANNOTATIONS>
10  14  8
10  15  8
11  16  8
11  17  8
12  18  8
13  19  8
14  23  8
15  24  8
16  20  8
17  21  8
18  22  8
19  22  8
20  25  8
21  25  8
3  6  8
3  8  8
4  7  8
4  8  8
5  23  8
5  24  8
6  7  8
9  12  8
9  13  8

$$$$
