49830953
  -OEChem-03202503572D

 82 89  0     0  0  0  0  0  0999 V2000
    7.4171   -2.0867    0.0000 F   0  0  0  0  0  0  0  0  0  0  0  0
    5.1570   -4.7120    0.0000 F   0  0  0  0  0  0  0  0  0  0  0  0
    7.0449   -4.0518    0.0000 F   0  0  0  0  0  0  0  0  0  0  0  0
   18.2986   -1.4956    0.0000 O   0  0  0  0  0  0  0  0  0  0  0  0
   13.8847    2.5685    0.0000 O   0  0  0  0  0  0  0  0  0  0  0  0
    7.4233    4.7120    0.0000 O   0  0  0  0  0  0  0  0  0  0  0  0
    4.1996   -0.4596    0.0000 N   0  0  0  0  0  0  0  0  0  0  0  0
   16.8273   -0.1409    0.0000 N   0  0  0  0  0  0  0  0  0  0  0  0
    8.3571    1.6204    0.0000 N   0  0  0  0  0  0  0  0  0  0  0  0
    8.8572    3.8110    0.0000 N   0  0  0  0  0  0  0  0  0  0  0  0
    2.0000    1.0986    0.0000 N   0  0  0  0  0  0  0  0  0  0  0  0
    4.9755    0.9505    0.0000 C   0  0  0  0  0  0  0  0  0  0  0  0
    3.9996    1.1397    0.0000 C   0  0  0  0  0  0  0  0  0  0  0  0
    3.5175    0.2636    0.0000 C   0  0  0  0  0  0  0  0  0  0  0  0
    5.7059    1.6335    0.0000 C   0  0  0  0  0  0  0  0  0  0  0  0
    5.0988   -0.0359    0.0000 C   0  0  0  0  0  0  0  0  0  0  0  0
   17.7817    0.1575    0.0000 C   0  0  0  0  0  0  0  0  0  0  0  0
   16.6086   -1.1167    0.0000 C   0  0  0  0  0  0  0  0  0  0  0  0
    4.0135   -1.4421    0.0000 C   0  0  0  0  0  0  0  0  0  0  0  0
    7.4562    2.0543    0.0000 C   0  0  0  0  0  0  0  0  0  0  0  0
   18.5174   -0.5199    0.0000 C   0  0  0  0  0  0  0  0  0  0  0  0
   17.3442   -1.7941    0.0000 C   0  0  0  0  0  0  0  0  0  0  0  0
    6.7036    1.3341    0.0000 C   0  0  0  0  0  0  0  0  0  0  0  0
    7.2336    3.0292    0.0000 C   0  0  0  0  0  0  0  0  0  0  0  0
   16.0917    0.5364    0.0000 C   0  0  0  0  0  0  0  0  0  0  0  0
    9.2581    2.0543    0.0000 C   0  0  0  0  0  0  0  0  0  0  0  0
    5.4741    2.6490    0.0000 C   0  0  0  0  0  0  0  0  0  0  0  0
    9.4806    3.0292    0.0000 C   0  0  0  0  0  0  0  0  0  0  0  0
    3.4819    1.9953    0.0000 C   0  0  0  0  0  0  0  0  0  0  0  0
    6.2432    3.3516    0.0000 C   0  0  0  0  0  0  0  0  0  0  0  0
    2.5177    0.2430    0.0000 C   0  0  0  0  0  0  0  0  0  0  0  0
    4.7713   -2.0945    0.0000 C   0  0  0  0  0  0  0  0  0  0  0  0
   11.2401    2.6490    0.0000 C   0  0  0  0  0  0  0  0  0  0  0  0
   12.1946    2.9474    0.0000 C   0  0  0  0  0  0  0  0  0  0  0  0
    7.8572    3.8110    0.0000 C   0  0  0  0  0  0  0  0  0  0  0  0
   10.4711    3.3515    0.0000 C   0  0  0  0  0  0  0  0  0  0  0  0
   10.0107    1.3341    0.0000 C   0  0  0  0  0  0  0  0  0  0  0  0
   15.1372    0.2380    0.0000 C   0  0  0  0  0  0  0  0  0  0  0  0
   16.3104    1.5122    0.0000 C   0  0  0  0  0  0  0  0  0  0  0  0
   11.0083    1.6334    0.0000 C   0  0  0  0  0  0  0  0  0  0  0  0
   12.9302    2.2700    0.0000 C   0  0  0  0  0  0  0  0  0  0  0  0
    2.4821    1.9747    0.0000 C   0  0  0  0  0  0  0  0  0  0  0  0
   14.6203    1.8911    0.0000 C   0  0  0  0  0  0  0  0  0  0  0  0
   14.4016    0.9153    0.0000 C   0  0  0  0  0  0  0  0  0  0  0  0
   15.5748    2.1895    0.0000 C   0  0  0  0  0  0  0  0  0  0  0  0
    4.5852   -3.0771    0.0000 C   0  0  0  0  0  0  0  0  0  0  0  0
    5.7153   -1.7644    0.0000 C   0  0  0  0  0  0  0  0  0  0  0  0
    6.4731   -2.4168    0.0000 C   0  0  0  0  0  0  0  0  0  0  0  0
    5.3431   -3.7295    0.0000 C   0  0  0  0  0  0  0  0  0  0  0  0
    6.2870   -3.3994    0.0000 C   0  0  0  0  0  0  0  0  0  0  0  0
    5.6420   -0.3348    0.0000 H   0  0  0  0  0  0  0  0  0  0  0  0
   18.2745    0.5338    0.0000 H   0  0  0  0  0  0  0  0  0  0  0  0
   17.4968    0.7081    0.0000 H   0  0  0  0  0  0  0  0  0  0  0  0
   16.0363   -0.8781    0.0000 H   0  0  0  0  0  0  0  0  0  0  0  0
   16.2742   -1.6388    0.0000 H   0  0  0  0  0  0  0  0  0  0  0  0
    3.4336   -1.2227    0.0000 H   0  0  0  0  0  0  0  0  0  0  0  0
    3.6967   -1.9751    0.0000 H   0  0  0  0  0  0  0  0  0  0  0  0
   19.0897   -0.7585    0.0000 H   0  0  0  0  0  0  0  0  0  0  0  0
   18.8518    0.0023    0.0000 H   0  0  0  0  0  0  0  0  0  0  0  0
   16.8514   -2.1703    0.0000 H   0  0  0  0  0  0  0  0  0  0  0  0
   17.6292   -2.3447    0.0000 H   0  0  0  0  0  0  0  0  0  0  0  0
    6.8485    0.7313    0.0000 H   0  0  0  0  0  0  0  0  0  0  0  0
    4.8824    2.8340    0.0000 H   0  0  0  0  0  0  0  0  0  0  0  0
    8.3571    1.0004    0.0000 H   0  0  0  0  0  0  0  0  0  0  0  0
    3.7808    2.5384    0.0000 H   0  0  0  0  0  0  0  0  0  0  0  0
    6.1122    3.9576    0.0000 H   0  0  0  0  0  0  0  0  0  0  0  0
    2.2188   -0.3001    0.0000 H   0  0  0  0  0  0  0  0  0  0  0  0
   12.6873    3.3236    0.0000 H   0  0  0  0  0  0  0  0  0  0  0  0
   11.9096    3.4980    0.0000 H   0  0  0  0  0  0  0  0  0  0  0  0
   10.6021    3.9575    0.0000 H   0  0  0  0  0  0  0  0  0  0  0  0
    9.1262    4.3696    0.0000 H   0  0  0  0  0  0  0  0  0  0  0  0
    9.8657    0.7313    0.0000 H   0  0  0  0  0  0  0  0  0  0  0  0
   15.0016   -0.3670    0.0000 H   0  0  0  0  0  0  0  0  0  0  0  0
   16.9022    1.6972    0.0000 H   0  0  0  0  0  0  0  0  0  0  0  0
   11.4612    1.2100    0.0000 H   0  0  0  0  0  0  0  0  0  0  0  0
   12.4375    1.8938    0.0000 H   0  0  0  0  0  0  0  0  0  0  0  0
   13.2152    1.7194    0.0000 H   0  0  0  0  0  0  0  0  0  0  0  0
    2.1612    2.5052    0.0000 H   0  0  0  0  0  0  0  0  0  0  0  0
   13.8098    0.7303    0.0000 H   0  0  0  0  0  0  0  0  0  0  0  0
   15.7104    2.7945    0.0000 H   0  0  0  0  0  0  0  0  0  0  0  0
    4.0000   -3.2817    0.0000 H   0  0  0  0  0  0  0  0  0  0  0  0
    5.8306   -1.1553    0.0000 H   0  0  0  0  0  0  0  0  0  0  0  0
  1 48  1  0  0  0  0
  2 49  1  0  0  0  0
  3 50  1  0  0  0  0
  4 21  1  0  0  0  0
  4 22  1  0  0  0  0
  5 41  1  0  0  0  0
  5 43  1  0  0  0  0
  6 35  2  0  0  0  0
  7 14  1  0  0  0  0
  7 16  1  0  0  0  0
  7 19  1  0  0  0  0
  8 17  1  0  0  0  0
  8 18  1  0  0  0  0
  8 25  1  0  0  0  0
  9 20  1  0  0  0  0
  9 26  1  0  0  0  0
  9 64  1  0  0  0  0
 10 28  1  0  0  0  0
 10 35  1  0  0  0  0
 10 71  1  0  0  0  0
 11 31  2  0  0  0  0
 11 42  1  0  0  0  0
 12 13  1  0  0  0  0
 12 15  1  0  0  0  0
 12 16  2  0  0  0  0
 13 14  2  0  0  0  0
 13 29  1  0  0  0  0
 14 31  1  0  0  0  0
 15 23  2  0  0  0  0
 15 27  1  0  0  0  0
 16 51  1  0  0  0  0
 17 21  1  0  0  0  0
 17 52  1  0  0  0  0
 17 53  1  0  0  0  0
 18 22  1  0  0  0  0
 18 54  1  0  0  0  0
 18 55  1  0  0  0  0
 19 32  1  0  0  0  0
 19 56  1  0  0  0  0
 19 57  1  0  0  0  0
 20 23  1  0  0  0  0
 20 24  2  0  0  0  0
 21 58  1  0  0  0  0
 21 59  1  0  0  0  0
 22 60  1  0  0  0  0
 22 61  1  0  0  0  0
 23 62  1  0  0  0  0
 24 30  1  0  0  0  0
 24 35  1  0  0  0  0
 25 38  2  0  0  0  0
 25 39  1  0  0  0  0
 26 28  2  0  0  0  0
 26 37  1  0  0  0  0
 27 30  2  0  0  0  0
 27 63  1  0  0  0  0
 28 36  1  0  0  0  0
 29 42  2  0  0  0  0
 29 65  1  0  0  0  0
 30 66  1  0  0  0  0
 31 67  1  0  0  0  0
 32 46  2  0  0  0  0
 32 47  1  0  0  0  0
 33 34  1  0  0  0  0
 33 36  2  0  0  0  0
 33 40  1  0  0  0  0
 34 41  1  0  0  0  0
 34 68  1  0  0  0  0
 34 69  1  0  0  0  0
 36 70  1  0  0  0  0
 37 40  2  0  0  0  0
 37 72  1  0  0  0  0
 38 44  1  0  0  0  0
 38 73  1  0  0  0  0
 39 45  2  0  0  0  0
 39 74  1  0  0  0  0
 40 75  1  0  0  0  0
 41 76  1  0  0  0  0
 41 77  1  0  0  0  0
 42 78  1  0  0  0  0
 43 44  2  0  0  0  0
 43 45  1  0  0  0  0
 44 79  1  0  0  0  0
 45 80  1  0  0  0  0
 46 49  1  0  0  0  0
 46 81  1  0  0  0  0
 47 48  2  0  0  0  0
 47 82  1  0  0  0  0
 48 50  1  0  0  0  0
 49 50  2  0  0  0  0
M  END
> <PUBCHEM_COMPOUND_CID>
49830953

> <PUBCHEM_COMPOUND_CANONICALIZED>
1

> <PUBCHEM_CACTVS_COMPLEXITY>
1110

> <PUBCHEM_CACTVS_HBOND_ACCEPTOR>
9

> <PUBCHEM_CACTVS_HBOND_DONOR>
2

> <PUBCHEM_CACTVS_ROTATABLE_BOND>
8

> <PUBCHEM_CACTVS_SUBSKEYS>
AAADcfB/sYAAAAAAAAAAAAAAAAAAAWAAAAA8eMGCBYAAAFgB/AAAHwAQAAAADAzhng48xvPMFACoAzV3VACCiCQ1MiAI2CE+fNgOZvrE9ZuXOajk1BHY6ce42OOOyEAAQAACACCQgACAAAQAQAAAAAAAAA==

> <PUBCHEM_IUPAC_OPENEYE_NAME>
3-[2-(4-morpholinophenoxy)ethyl]-9-[1-[(3,4,5-trifluorophenyl)methyl]pyrrolo[2,3-c]pyridin-3-yl]-5,11-dihydrobenzo[b][1,4]benzodiazepin-6-one

> <PUBCHEM_IUPAC_CAS_NAME>
3-[2-[4-(4-morpholinyl)phenoxy]ethyl]-9-[1-[(3,4,5-trifluorophenyl)methyl]-3-pyrrolo[2,3-c]pyridinyl]-5,11-dihydrobenzo[b][1,4]benzodiazepin-6-one

> <PUBCHEM_IUPAC_NAME_MARKUP>
3-[2-(4-morpholin-4-ylphenoxy)ethyl]-9-[1-[(3,4,5-trifluorophenyl)methyl]pyrrolo[2,3-c]pyridin-3-yl]-5,11-dihydrobenzo[b][1,4]benzodiazepin-6-one

> <PUBCHEM_IUPAC_NAME>
3-[2-(4-morpholin-4-ylphenoxy)ethyl]-9-[1-[(3,4,5-trifluorophenyl)methyl]pyrrolo[2,3-c]pyridin-3-yl]-5,11-dihydrobenzo[b][1,4]benzodiazepin-6-one

> <PUBCHEM_IUPAC_SYSTEMATIC_NAME>
3-[2-(4-morpholin-4-ylphenoxy)ethyl]-9-[1-[[3,4,5-tris(fluoranyl)phenyl]methyl]pyrrolo[2,3-c]pyridin-3-yl]-5,11-dihydrobenzo[b][1,4]benzodiazepin-6-one

> <PUBCHEM_IUPAC_TRADITIONAL_NAME>
3-[2-(4-morpholinophenoxy)ethyl]-9-[1-(3,4,5-trifluorobenzyl)pyrrolo[2,3-c]pyridin-3-yl]-5,11-dihydrobenzo[b][1,4]benzodiazepin-6-one

> <PUBCHEM_IUPAC_INCHI>
InChI=1S/C39H32F3N5O3/c40-32-17-25(18-33(41)38(32)42)22-47-23-31(29-9-11-43-21-37(29)47)26-2-7-30-35(20-26)44-34-8-1-24(19-36(34)45-39(30)48)10-14-50-28-5-3-27(4-6-28)46-12-15-49-16-13-46/h1-9,11,17-21,23,44H,10,12-16,22H2,(H,45,48)

> <PUBCHEM_IUPAC_INCHIKEY>
PHMQDWBSDYUPSP-UHFFFAOYSA-N

> <PUBCHEM_XLOGP3_AA>
6.6

> <PUBCHEM_EXACT_MASS>
675.24572439

> <PUBCHEM_MOLECULAR_FORMULA>
C39H32F3N5O3

> <PUBCHEM_MOLECULAR_WEIGHT>
675.7

> <PUBCHEM_SMILES>
C1COCCN1C2=CC=C(C=C2)OCCC3=CC4=C(C=C3)NC5=C(C=CC(=C5)C6=CN(C7=C6C=CN=C7)CC8=CC(=C(C(=C8)F)F)F)C(=O)N4

> <PUBCHEM_OPENEYE_CAN_SMILES>
C1COCCN1C2=CC=C(C=C2)OCCC3=CC4=C(C=C3)NC5=C(C=CC(=C5)C6=CN(C7=C6C=CN=C7)CC8=CC(=C(C(=C8)F)F)F)C(=O)N4

> <PUBCHEM_OPENEYE_ISO_SMILES>
C1COCCN1C2=CC=C(C=C2)OCCC3=CC4=C(C=C3)NC5=C(C=CC(=C5)C6=CN(C7=C6C=CN=C7)CC8=CC(=C(C(=C8)F)F)F)C(=O)N4

> <PUBCHEM_CACTVS_TPSA>
80.7

> <PUBCHEM_MONOISOTOPIC_WEIGHT>
675.24572439

> <PUBCHEM_TOTAL_CHARGE>
0

> <PUBCHEM_HEAVY_ATOM_COUNT>
50

> <PUBCHEM_ATOM_DEF_STEREO_COUNT>
0

> <PUBCHEM_ATOM_UDEF_STEREO_COUNT>
0

> <PUBCHEM_BOND_DEF_STEREO_COUNT>
0

> <PUBCHEM_BOND_UDEF_STEREO_COUNT>
0

> <PUBCHEM_ISOTOPIC_ATOM_COUNT>
0

> <PUBCHEM_COMPONENT_COUNT>
1

> <PUBCHEM_CACTVS_TAUTO_COUNT>
-1

> <PUBCHEM_COORDINATE_TYPE>
1
5
255

> <PUBCHEM_BONDANNOTATIONS>
11  31  8
11  42  8
12  13  8
12  16  8
13  14  8
13  29  8
14  31  8
15  23  8
15  27  8
20  23  8
20  24  8
24  30  8
25  38  8
25  39  8
26  28  8
26  37  8
27  30  8
28  36  8
29  42  8
32  46  8
32  47  8
33  36  8
33  40  8
37  40  8
38  44  8
39  45  8
43  44  8
43  45  8
46  49  8
47  48  8
48  50  8
49  50  8
7  14  8
7  16  8

$$$$
