24768216
  -OEChem-03202501202D

 34 36  0     0  0  0  0  0  0999 V2000
    2.0000    1.9470    0.0000 Br  0  0  0  0  0  0  0  0  0  0  0  0
    7.1962   -1.0530    0.0000 O   0  0  0  0  0  0  0  0  0  0  0  0
    8.0622    0.4470    0.0000 N   0  0  0  0  0  0  0  0  0  0  0  0
    6.3301    0.4470    0.0000 N   0  0  0  0  0  0  0  0  0  0  0  0
   11.6065   -1.3577    0.0000 N   0  0  0  0  0  0  0  0  0  0  0  0
   12.1901   -0.5530    0.0000 N   0  0  0  0  0  0  0  0  0  0  0  0
   10.6603   -0.0530    0.0000 C   0  0  0  0  0  0  0  0  0  0  0  0
   10.6603   -1.0530    0.0000 C   0  0  0  0  0  0  0  0  0  0  0  0
    8.9282   -0.0530    0.0000 C   0  0  0  0  0  0  0  0  0  0  0  0
    9.7942    0.4470    0.0000 C   0  0  0  0  0  0  0  0  0  0  0  0
    5.4641   -0.0530    0.0000 C   0  0  0  0  0  0  0  0  0  0  0  0
    9.7942   -1.5530    0.0000 C   0  0  0  0  0  0  0  0  0  0  0  0
    4.5981    0.4470    0.0000 C   0  0  0  0  0  0  0  0  0  0  0  0
    8.9282   -1.0530    0.0000 C   0  0  0  0  0  0  0  0  0  0  0  0
   11.6065    0.2518    0.0000 C   0  0  0  0  0  0  0  0  0  0  0  0
    7.1962   -0.0530    0.0000 C   0  0  0  0  0  0  0  0  0  0  0  0
    4.5981    1.4470    0.0000 C   0  0  0  0  0  0  0  0  0  0  0  0
    3.7320   -0.0530    0.0000 C   0  0  0  0  0  0  0  0  0  0  0  0
    3.7320    1.9470    0.0000 C   0  0  0  0  0  0  0  0  0  0  0  0
    2.8660    0.4470    0.0000 C   0  0  0  0  0  0  0  0  0  0  0  0
    2.8660    1.4470    0.0000 C   0  0  0  0  0  0  0  0  0  0  0  0
    9.7942    1.0670    0.0000 H   0  0  0  0  0  0  0  0  0  0  0  0
    5.0656   -0.5279    0.0000 H   0  0  0  0  0  0  0  0  0  0  0  0
    5.8626   -0.5279    0.0000 H   0  0  0  0  0  0  0  0  0  0  0  0
    9.7942   -2.1730    0.0000 H   0  0  0  0  0  0  0  0  0  0  0  0
    8.3913   -1.3630    0.0000 H   0  0  0  0  0  0  0  0  0  0  0  0
    8.0622    1.0670    0.0000 H   0  0  0  0  0  0  0  0  0  0  0  0
    6.3301    1.0670    0.0000 H   0  0  0  0  0  0  0  0  0  0  0  0
   11.7991    0.8411    0.0000 H   0  0  0  0  0  0  0  0  0  0  0  0
   11.7991   -1.9470    0.0000 H   0  0  0  0  0  0  0  0  0  0  0  0
    5.1350    1.7570    0.0000 H   0  0  0  0  0  0  0  0  0  0  0  0
    3.7320   -0.6730    0.0000 H   0  0  0  0  0  0  0  0  0  0  0  0
    3.7320    2.5670    0.0000 H   0  0  0  0  0  0  0  0  0  0  0  0
    2.3291    0.1370    0.0000 H   0  0  0  0  0  0  0  0  0  0  0  0
  1 21  1  0  0  0  0
  2 16  2  0  0  0  0
  3  9  1  0  0  0  0
  3 16  1  0  0  0  0
  3 27  1  0  0  0  0
  4 11  1  0  0  0  0
  4 16  1  0  0  0  0
  4 28  1  0  0  0  0
  5  6  1  0  0  0  0
  5  8  1  0  0  0  0
  5 30  1  0  0  0  0
  6 15  2  0  0  0  0
  7  8  2  0  0  0  0
  7 10  1  0  0  0  0
  7 15  1  0  0  0  0
  8 12  1  0  0  0  0
  9 10  2  0  0  0  0
  9 14  1  0  0  0  0
 10 22  1  0  0  0  0
 11 13  1  0  0  0  0
 11 23  1  0  0  0  0
 11 24  1  0  0  0  0
 12 14  2  0  0  0  0
 12 25  1  0  0  0  0
 13 17  2  0  0  0  0
 13 18  1  0  0  0  0
 14 26  1  0  0  0  0
 15 29  1  0  0  0  0
 17 19  1  0  0  0  0
 17 31  1  0  0  0  0
 18 20  2  0  0  0  0
 18 32  1  0  0  0  0
 19 21  2  0  0  0  0
 19 33  1  0  0  0  0
 20 21  1  0  0  0  0
 20 34  1  0  0  0  0
M  END
> <PUBCHEM_COMPOUND_CID>
24768216

> <PUBCHEM_COMPOUND_CANONICALIZED>
1

> <PUBCHEM_CACTVS_COMPLEXITY>
360

> <PUBCHEM_CACTVS_HBOND_ACCEPTOR>
2

> <PUBCHEM_CACTVS_HBOND_DONOR>
3

> <PUBCHEM_CACTVS_ROTATABLE_BOND>
3

> <PUBCHEM_CACTVS_SUBSKEYS>
AAADccBzoAAAEAAAAAAAAAAAAAAAAWAAAAAwYAAAAAAAAFgB9AAAHgBYAAABrAjBHgQ9wPLjAACqAzRnUACSBAAhggQYuaA4ZLiIIKLA0dGEpAhongJIyjcQgAAOAgCAQAACAAAEAQCAAAQAAAAAAAAAAA==

> <PUBCHEM_IUPAC_OPENEYE_NAME>
1-[(4-bromophenyl)methyl]-3-(1H-indazol-5-yl)urea

> <PUBCHEM_IUPAC_CAS_NAME>
1-[(4-bromophenyl)methyl]-3-(1H-indazol-5-yl)urea

> <PUBCHEM_IUPAC_NAME_MARKUP>
1-[(4-bromophenyl)methyl]-3-(1<I>H</I>-indazol-5-yl)urea

> <PUBCHEM_IUPAC_NAME>
1-[(4-bromophenyl)methyl]-3-(1H-indazol-5-yl)urea

> <PUBCHEM_IUPAC_SYSTEMATIC_NAME>
1-[(4-bromophenyl)methyl]-3-(1H-indazol-5-yl)urea

> <PUBCHEM_IUPAC_TRADITIONAL_NAME>
1-(4-bromobenzyl)-3-(1H-indazol-5-yl)urea

> <PUBCHEM_IUPAC_INCHI>
InChI=1S/C15H13BrN4O/c16-12-3-1-10(2-4-12)8-17-15(21)19-13-5-6-14-11(7-13)9-18-20-14/h1-7,9H,8H2,(H,18,20)(H2,17,19,21)

> <PUBCHEM_IUPAC_INCHIKEY>
NPLQZQGAZAUUTB-UHFFFAOYSA-N

> <PUBCHEM_XLOGP3_AA>
2.7

> <PUBCHEM_EXACT_MASS>
344.02727

> <PUBCHEM_MOLECULAR_FORMULA>
C15H13BrN4O

> <PUBCHEM_MOLECULAR_WEIGHT>
345.19

> <PUBCHEM_SMILES>
C1=CC(=CC=C1CNC(=O)NC2=CC3=C(C=C2)NN=C3)Br

> <PUBCHEM_OPENEYE_CAN_SMILES>
C1=CC(=CC=C1CNC(=O)NC2=CC3=C(C=C2)NN=C3)Br

> <PUBCHEM_OPENEYE_ISO_SMILES>
C1=CC(=CC=C1CNC(=O)NC2=CC3=C(C=C2)NN=C3)Br

> <PUBCHEM_CACTVS_TPSA>
69.8

> <PUBCHEM_MONOISOTOPIC_WEIGHT>
344.02727

> <PUBCHEM_TOTAL_CHARGE>
0

> <PUBCHEM_HEAVY_ATOM_COUNT>
21

> <PUBCHEM_ATOM_DEF_STEREO_COUNT>
0

> <PUBCHEM_ATOM_UDEF_STEREO_COUNT>
0

> <PUBCHEM_BOND_DEF_STEREO_COUNT>
0

> <PUBCHEM_BOND_UDEF_STEREO_COUNT>
0

> <PUBCHEM_ISOTOPIC_ATOM_COUNT>
0

> <PUBCHEM_COMPONENT_COUNT>
1

> <PUBCHEM_CACTVS_TAUTO_COUNT>
-1

> <PUBCHEM_COORDINATE_TYPE>
1
5
255

> <PUBCHEM_BONDANNOTATIONS>
12  14  8
13  17  8
13  18  8
17  19  8
18  20  8
19  21  8
20  21  8
5  6  8
5  8  8
6  15  8
7  10  8
7  15  8
7  8  8
8  12  8
9  10  8
9  14  8

$$$$
