49830737
  -OEChem-03202503362D

 55 58  0     1  0  0  0  0  0999 V2000
    3.7357   -4.6004    0.0000 Cl  0  0  0  0  0  0  0  0  0  0  0  0
    4.9720    6.7904    0.0000 O   0  0  0  0  0  0  0  0  0  0  0  0
    5.8381    5.2904    0.0000 O   0  0  0  0  0  0  0  0  0  0  0  0
    5.9677   -0.0616    0.0000 O   0  0  0  0  0  0  0  0  0  0  0  0
    5.4677   -5.6004    0.0000 O   0  0  0  0  0  0  0  0  0  0  0  0
    2.6166    3.1745    0.0000 N   0  0  0  0  0  0  0  0  0  0  0  0
    4.6587   -1.0127    0.0000 N   0  0  0  0  0  0  0  0  0  0  0  0
    6.2768   -1.0127    0.0000 N   0  0  0  0  0  0  0  0  0  0  0  0
    3.0233    4.0880    0.0000 C   0  0  3  0  0  0  0  0  0  0  0  0
    4.1060    5.2904    0.0000 C   0  0  3  0  0  0  0  0  0  0  0  0
    4.0015    4.2959    0.0000 C   0  0  0  0  0  0  0  0  0  0  0  0
    2.5233    4.9540    0.0000 C   0  0  0  0  0  0  0  0  0  0  0  0
    3.1925    5.6972    0.0000 C   0  0  0  0  0  0  0  0  0  0  0  0
    4.9720    5.7904    0.0000 C   0  0  0  0  0  0  0  0  0  0  0  0
    3.2044    2.3654    0.0000 C   0  0  0  0  0  0  0  0  0  0  0  0
    2.7976    1.4519    0.0000 C   0  0  0  0  0  0  0  0  0  0  0  0
    4.1989    2.4700    0.0000 C   0  0  0  0  0  0  0  0  0  0  0  0
    3.3854    0.6429    0.0000 C   0  0  0  0  0  0  0  0  0  0  0  0
    4.7867    1.6610    0.0000 C   0  0  0  0  0  0  0  0  0  0  0  0
    4.3800    0.7474    0.0000 C   0  0  0  0  0  0  0  0  0  0  0  0
    4.9677   -0.0616    0.0000 C   0  0  0  0  0  0  0  0  0  0  0  0
    5.4677   -1.6004    0.0000 C   0  0  0  0  0  0  0  0  0  0  0  0
    5.4677   -2.6004    0.0000 C   0  0  0  0  0  0  0  0  0  0  0  0
    6.3338   -6.1004    0.0000 C   0  0  0  0  0  0  0  0  0  0  0  0
    5.4677   -4.6004    0.0000 C   0  0  0  0  0  0  0  0  0  0  0  0
    4.6017   -3.1004    0.0000 C   0  0  0  0  0  0  0  0  0  0  0  0
    6.3338   -3.1004    0.0000 C   0  0  0  0  0  0  0  0  0  0  0  0
    4.6017   -4.1004    0.0000 C   0  0  0  0  0  0  0  0  0  0  0  0
    6.3338   -4.1004    0.0000 C   0  0  0  0  0  0  0  0  0  0  0  0
    6.3338   -7.1004    0.0000 C   0  0  0  0  0  0  0  0  0  0  0  0
    7.1998   -5.6004    0.0000 C   0  0  0  0  0  0  0  0  0  0  0  0
    2.4042    4.0556    0.0000 H   0  0  0  0  0  0  0  0  0  0  0  0
    4.6260    4.9528    0.0000 H   0  0  0  0  0  0  0  0  0  0  0  0
    4.0663    3.6793    0.0000 H   0  0  0  0  0  0  0  0  0  0  0  0
    4.6215    4.2959    0.0000 H   0  0  0  0  0  0  0  0  0  0  0  0
    2.1085    5.4148    0.0000 H   0  0  0  0  0  0  0  0  0  0  0  0
    2.0218    4.5896    0.0000 H   0  0  0  0  0  0  0  0  0  0  0  0
    3.5025    6.2341    0.0000 H   0  0  0  0  0  0  0  0  0  0  0  0
    2.6909    6.0616    0.0000 H   0  0  0  0  0  0  0  0  0  0  0  0
    2.0000    3.1097    0.0000 H   0  0  0  0  0  0  0  0  0  0  0  0
    5.5090    7.1004    0.0000 H   0  0  0  0  0  0  0  0  0  0  0  0
    2.1810    1.3871    0.0000 H   0  0  0  0  0  0  0  0  0  0  0  0
    4.4511    3.0364    0.0000 H   0  0  0  0  0  0  0  0  0  0  0  0
    3.1333    0.0765    0.0000 H   0  0  0  0  0  0  0  0  0  0  0  0
    5.4033    1.7258    0.0000 H   0  0  0  0  0  0  0  0  0  0  0  0
    6.3338   -5.4804    0.0000 H   0  0  0  0  0  0  0  0  0  0  0  0
    4.0648   -2.7904    0.0000 H   0  0  0  0  0  0  0  0  0  0  0  0
    6.8707   -2.7904    0.0000 H   0  0  0  0  0  0  0  0  0  0  0  0
    6.8707   -4.4104    0.0000 H   0  0  0  0  0  0  0  0  0  0  0  0
    5.7138   -7.1004    0.0000 H   0  0  0  0  0  0  0  0  0  0  0  0
    6.3338   -7.7204    0.0000 H   0  0  0  0  0  0  0  0  0  0  0  0
    6.9538   -7.1004    0.0000 H   0  0  0  0  0  0  0  0  0  0  0  0
    7.5098   -6.1374    0.0000 H   0  0  0  0  0  0  0  0  0  0  0  0
    7.7367   -5.2904    0.0000 H   0  0  0  0  0  0  0  0  0  0  0  0
    6.8898   -5.0635    0.0000 H   0  0  0  0  0  0  0  0  0  0  0  0
  1 28  1  0  0  0  0
  2 14  1  0  0  0  0
  2 41  1  0  0  0  0
  3 14  2  0  0  0  0
  4  8  1  0  0  0  0
  4 21  1  0  0  0  0
  5 24  1  0  0  0  0
  5 25  1  0  0  0  0
  6  9  1  0  0  0  0
  6 15  1  0  0  0  0
  6 40  1  0  0  0  0
  7 21  2  0  0  0  0
  7 22  1  0  0  0  0
  8 22  2  0  0  0  0
  9 11  1  0  0  0  0
  9 12  1  0  0  0  0
  9 32  1  0  0  0  0
 10 11  1  0  0  0  0
 10 13  1  0  0  0  0
 10 14  1  0  0  0  0
 10 33  1  0  0  0  0
 11 34  1  0  0  0  0
 11 35  1  0  0  0  0
 12 13  1  0  0  0  0
 12 36  1  0  0  0  0
 12 37  1  0  0  0  0
 13 38  1  0  0  0  0
 13 39  1  0  0  0  0
 15 16  2  0  0  0  0
 15 17  1  0  0  0  0
 16 18  1  0  0  0  0
 16 42  1  0  0  0  0
 17 19  2  0  0  0  0
 17 43  1  0  0  0  0
 18 20  2  0  0  0  0
 18 44  1  0  0  0  0
 19 20  1  0  0  0  0
 19 45  1  0  0  0  0
 20 21  1  0  0  0  0
 22 23  1  0  0  0  0
 23 26  2  0  0  0  0
 23 27  1  0  0  0  0
 24 30  1  0  0  0  0
 24 31  1  0  0  0  0
 24 46  1  0  0  0  0
 25 28  2  0  0  0  0
 25 29  1  0  0  0  0
 26 28  1  0  0  0  0
 26 47  1  0  0  0  0
 27 29  2  0  0  0  0
 27 48  1  0  0  0  0
 29 49  1  0  0  0  0
 30 50  1  0  0  0  0
 30 51  1  0  0  0  0
 30 52  1  0  0  0  0
 31 53  1  0  0  0  0
 31 54  1  0  0  0  0
 31 55  1  0  0  0  0
M  END
> <PUBCHEM_COMPOUND_CID>
49830737

> <PUBCHEM_COMPOUND_CANONICALIZED>
1

> <PUBCHEM_CACTVS_COMPLEXITY>
601

> <PUBCHEM_CACTVS_HBOND_ACCEPTOR>
7

> <PUBCHEM_CACTVS_HBOND_DONOR>
2

> <PUBCHEM_CACTVS_ROTATABLE_BOND>
7

> <PUBCHEM_CACTVS_SUBSKEYS>
AAADceB7OAAEAAAAAAAAAAAAAAAAAeIAAAAwYAAAAAAAAAAB0AAAHgIUCAAADT7hmyYz3obYFgCpAifyfgCCiAklJ+ApiKEub9iMLrPFv5uGeSjk1RPI6Ye82SOeKAAAIAAACABQAABAAAAQACAAAAAAAA==

> <PUBCHEM_IUPAC_OPENEYE_NAME>
3-[4-[3-(3-chloro-4-isopropoxy-phenyl)-1,2,4-oxadiazol-5-yl]anilino]cyclopentanecarboxylic acid

> <PUBCHEM_IUPAC_CAS_NAME>
3-[4-[3-(3-chloro-4-propan-2-yloxyphenyl)-1,2,4-oxadiazol-5-yl]anilino]-1-cyclopentanecarboxylic acid

> <PUBCHEM_IUPAC_NAME_MARKUP>
3-[4-[3-(3-chloro-4-propan-2-yloxyphenyl)-1,2,4-oxadiazol-5-yl]anilino]cyclopentane-1-carboxylic acid

> <PUBCHEM_IUPAC_NAME>
3-[4-[3-(3-chloro-4-propan-2-yloxyphenyl)-1,2,4-oxadiazol-5-yl]anilino]cyclopentane-1-carboxylic acid

> <PUBCHEM_IUPAC_SYSTEMATIC_NAME>
3-[[4-[3-(3-chloranyl-4-propan-2-yloxy-phenyl)-1,2,4-oxadiazol-5-yl]phenyl]amino]cyclopentane-1-carboxylic acid

> <PUBCHEM_IUPAC_TRADITIONAL_NAME>
3-[4-[3-(3-chloro-4-isopropoxy-phenyl)-1,2,4-oxadiazol-5-yl]anilino]cyclopentanecarboxylic acid

> <PUBCHEM_IUPAC_INCHI>
InChI=1S/C23H24ClN3O4/c1-13(2)30-20-10-6-15(12-19(20)24)21-26-22(31-27-21)14-3-7-17(8-4-14)25-18-9-5-16(11-18)23(28)29/h3-4,6-8,10,12-13,16,18,25H,5,9,11H2,1-2H3,(H,28,29)

> <PUBCHEM_IUPAC_INCHIKEY>
BUDUKLTWKFDUDT-UHFFFAOYSA-N

> <PUBCHEM_XLOGP3_AA>
5.3

> <PUBCHEM_EXACT_MASS>
441.1455339

> <PUBCHEM_MOLECULAR_FORMULA>
C23H24ClN3O4

> <PUBCHEM_MOLECULAR_WEIGHT>
441.9

> <PUBCHEM_SMILES>
CC(C)OC1=C(C=C(C=C1)C2=NOC(=N2)C3=CC=C(C=C3)NC4CCC(C4)C(=O)O)Cl

> <PUBCHEM_OPENEYE_CAN_SMILES>
CC(C)OC1=C(C=C(C=C1)C2=NOC(=N2)C3=CC=C(C=C3)NC4CCC(C4)C(=O)O)Cl

> <PUBCHEM_OPENEYE_ISO_SMILES>
CC(C)OC1=C(C=C(C=C1)C2=NOC(=N2)C3=CC=C(C=C3)NC4CCC(C4)C(=O)O)Cl

> <PUBCHEM_CACTVS_TPSA>
97.5

> <PUBCHEM_MONOISOTOPIC_WEIGHT>
441.1455339

> <PUBCHEM_TOTAL_CHARGE>
0

> <PUBCHEM_HEAVY_ATOM_COUNT>
31

> <PUBCHEM_ATOM_DEF_STEREO_COUNT>
0

> <PUBCHEM_ATOM_UDEF_STEREO_COUNT>
2

> <PUBCHEM_BOND_DEF_STEREO_COUNT>
0

> <PUBCHEM_BOND_UDEF_STEREO_COUNT>
0

> <PUBCHEM_ISOTOPIC_ATOM_COUNT>
0

> <PUBCHEM_COMPONENT_COUNT>
1

> <PUBCHEM_CACTVS_TAUTO_COUNT>
-1

> <PUBCHEM_COORDINATE_TYPE>
1
5
255

> <PUBCHEM_BONDANNOTATIONS>
10  14  3
15  16  8
15  17  8
16  18  8
17  19  8
18  20  8
19  20  8
23  26  8
23  27  8
25  28  8
25  29  8
26  28  8
27  29  8
4  21  8
4  8  8
9  6  3
7  21  8
7  22  8
8  22  8

$$$$
