49830611
  -OEChem-03202502162D

 58 61  0     0  0  0  0  0  0999 V2000
    9.7988   -0.8748    0.0000 F   0  0  0  0  0  0  0  0  0  0  0  0
   10.3719    4.5569    0.0000 O   0  0  0  0  0  0  0  0  0  0  0  0
    7.7935    2.2434    0.0000 N   0  0  0  0  0  0  0  0  0  0  0  0
    4.2690   -0.3748    0.0000 N   0  0  0  0  0  0  0  0  0  0  0  0
    5.2152   -1.6795    0.0000 N   0  0  0  0  0  0  0  0  0  0  0  0
    6.5044    1.0867    0.0000 N   0  0  0  0  0  0  0  0  0  0  0  0
    6.1472    2.7815    0.0000 N   0  0  0  0  0  0  0  0  0  0  0  0
    2.5369   -1.3748    0.0000 N   0  0  0  0  0  0  0  0  0  0  0  0
    2.5369   -4.3748    0.0000 N   0  0  0  0  0  0  0  0  0  0  0  0
    9.0827    3.4002    0.0000 C   0  0  0  0  0  0  0  0  0  0  0  0
    8.1042    3.1940    0.0000 C   0  0  0  0  0  0  0  0  0  0  0  0
   10.0612    3.6064    0.0000 C   0  0  0  0  0  0  0  0  0  0  0  0
    8.8765    4.3787    0.0000 C   0  0  0  0  0  0  0  0  0  0  0  0
    9.2889    2.4217    0.0000 C   0  0  0  0  0  0  0  0  0  0  0  0
    5.2152   -0.0700    0.0000 C   0  0  0  0  0  0  0  0  0  0  0  0
    4.2690   -1.3748    0.0000 C   0  0  0  0  0  0  0  0  0  0  0  0
    5.7988   -0.8748    0.0000 C   0  0  0  0  0  0  0  0  0  0  0  0
    6.8150    2.0372    0.0000 C   0  0  0  0  0  0  0  0  0  0  0  0
    5.5259    0.8805    0.0000 C   0  0  0  0  0  0  0  0  0  0  0  0
    3.4030   -1.8748    0.0000 C   0  0  0  0  0  0  0  0  0  0  0  0
    3.4030   -2.8748    0.0000 C   0  0  0  0  0  0  0  0  0  0  0  0
    3.4030    0.1252    0.0000 C   0  0  0  0  0  0  0  0  0  0  0  0
    6.7988   -0.8748    0.0000 C   0  0  0  0  0  0  0  0  0  0  0  0
    4.8580    1.6248    0.0000 C   0  0  0  0  0  0  0  0  0  0  0  0
    2.5369   -3.3748    0.0000 C   0  0  0  0  0  0  0  0  0  0  0  0
    2.5369   -0.3748    0.0000 C   0  0  0  0  0  0  0  0  0  0  0  0
    5.1687    2.5753    0.0000 C   0  0  0  0  0  0  0  0  0  0  0  0
    7.2988   -1.7408    0.0000 C   0  0  0  0  0  0  0  0  0  0  0  0
    7.2988   -0.0087    0.0000 C   0  0  0  0  0  0  0  0  0  0  0  0
    8.2988   -1.7408    0.0000 C   0  0  0  0  0  0  0  0  0  0  0  0
    8.2988   -0.0087    0.0000 C   0  0  0  0  0  0  0  0  0  0  0  0
    8.7988   -0.8748    0.0000 C   0  0  0  0  0  0  0  0  0  0  0  0
    8.0836    3.8136    0.0000 H   0  0  0  0  0  0  0  0  0  0  0  0
    7.4904    3.2813    0.0000 H   0  0  0  0  0  0  0  0  0  0  0  0
   10.0818    2.9867    0.0000 H   0  0  0  0  0  0  0  0  0  0  0  0
   10.6750    3.5190    0.0000 H   0  0  0  0  0  0  0  0  0  0  0  0
    9.4832    4.5065    0.0000 H   0  0  0  0  0  0  0  0  0  0  0  0
    8.7486    4.9854    0.0000 H   0  0  0  0  0  0  0  0  0  0  0  0
    8.2698    4.2508    0.0000 H   0  0  0  0  0  0  0  0  0  0  0  0
    8.6823    2.2938    0.0000 H   0  0  0  0  0  0  0  0  0  0  0  0
    9.4168    1.8150    0.0000 H   0  0  0  0  0  0  0  0  0  0  0  0
    9.8956    2.5495    0.0000 H   0  0  0  0  0  0  0  0  0  0  0  0
    8.2076    1.7820    0.0000 H   0  0  0  0  0  0  0  0  0  0  0  0
   10.9786    4.6848    0.0000 H   0  0  0  0  0  0  0  0  0  0  0  0
    3.6150   -3.4574    0.0000 H   0  0  0  0  0  0  0  0  0  0  0  0
    4.0135   -2.7671    0.0000 H   0  0  0  0  0  0  0  0  0  0  0  0
    3.4030    0.7452    0.0000 H   0  0  0  0  0  0  0  0  0  0  0  0
    4.2514    1.4969    0.0000 H   0  0  0  0  0  0  0  0  0  0  0  0
    2.3249   -2.7922    0.0000 H   0  0  0  0  0  0  0  0  0  0  0  0
    1.9264   -3.4824    0.0000 H   0  0  0  0  0  0  0  0  0  0  0  0
    2.0000   -0.0648    0.0000 H   0  0  0  0  0  0  0  0  0  0  0  0
    4.7546    3.0368    0.0000 H   0  0  0  0  0  0  0  0  0  0  0  0
    6.9888   -2.2777    0.0000 H   0  0  0  0  0  0  0  0  0  0  0  0
    6.9888    0.5282    0.0000 H   0  0  0  0  0  0  0  0  0  0  0  0
    8.6088   -2.2777    0.0000 H   0  0  0  0  0  0  0  0  0  0  0  0
    8.6088    0.5282    0.0000 H   0  0  0  0  0  0  0  0  0  0  0  0
    2.0000   -4.6848    0.0000 H   0  0  0  0  0  0  0  0  0  0  0  0
    3.0739   -4.6848    0.0000 H   0  0  0  0  0  0  0  0  0  0  0  0
  1 32  1  0  0  0  0
  2 12  1  0  0  0  0
  2 44  1  0  0  0  0
  3 11  1  0  0  0  0
  3 18  1  0  0  0  0
  3 43  1  0  0  0  0
  4 15  1  0  0  0  0
  4 16  1  0  0  0  0
  4 22  1  0  0  0  0
  5 16  2  0  0  0  0
  5 17  1  0  0  0  0
  6 18  1  0  0  0  0
  6 19  2  0  0  0  0
  7 18  2  0  0  0  0
  7 27  1  0  0  0  0
  8 20  2  0  0  0  0
  8 26  1  0  0  0  0
  9 25  1  0  0  0  0
  9 57  1  0  0  0  0
  9 58  1  0  0  0  0
 10 11  1  0  0  0  0
 10 12  1  0  0  0  0
 10 13  1  0  0  0  0
 10 14  1  0  0  0  0
 11 33  1  0  0  0  0
 11 34  1  0  0  0  0
 12 35  1  0  0  0  0
 12 36  1  0  0  0  0
 13 37  1  0  0  0  0
 13 38  1  0  0  0  0
 13 39  1  0  0  0  0
 14 40  1  0  0  0  0
 14 41  1  0  0  0  0
 14 42  1  0  0  0  0
 15 17  2  0  0  0  0
 15 19  1  0  0  0  0
 16 20  1  0  0  0  0
 17 23  1  0  0  0  0
 19 24  1  0  0  0  0
 20 21  1  0  0  0  0
 21 25  1  0  0  0  0
 21 45  1  0  0  0  0
 21 46  1  0  0  0  0
 22 26  2  0  0  0  0
 22 47  1  0  0  0  0
 23 28  2  0  0  0  0
 23 29  1  0  0  0  0
 24 27  2  0  0  0  0
 24 48  1  0  0  0  0
 25 49  1  0  0  0  0
 25 50  1  0  0  0  0
 26 51  1  0  0  0  0
 27 52  1  0  0  0  0
 28 30  1  0  0  0  0
 28 53  1  0  0  0  0
 29 31  2  0  0  0  0
 29 54  1  0  0  0  0
 30 32  2  0  0  0  0
 30 55  1  0  0  0  0
 31 32  1  0  0  0  0
 31 56  1  0  0  0  0
M  END
> <PUBCHEM_COMPOUND_CID>
49830611

> <PUBCHEM_COMPOUND_CANONICALIZED>
1

> <PUBCHEM_CACTVS_COMPLEXITY>
589

> <PUBCHEM_CACTVS_HBOND_ACCEPTOR>
8

> <PUBCHEM_CACTVS_HBOND_DONOR>
3

> <PUBCHEM_CACTVS_ROTATABLE_BOND>
8

> <PUBCHEM_CACTVS_SUBSKEYS>
AAADceB7oQAAAAAAAAAAAAAAAAAAAWAAAAA8WIAAAAAAAFgB/AAAHwAQCAAADgjhnw4/sJ/MGgCgAzZnZACCgC0xEqAJ2KA4dJiIeOLA2dGUZAhqkALIyCcQgMAOAAAAAAAAAAAAAAAAAAAAAAAAAAAAAA==

> <PUBCHEM_IUPAC_OPENEYE_NAME>
3-[[4-[8-(2-aminoethyl)-2-(4-fluorophenyl)imidazo[1,2-a]pyrazin-3-yl]pyrimidin-2-yl]amino]-2,2-dimethyl-propan-1-ol

> <PUBCHEM_IUPAC_CAS_NAME>
3-[[4-[8-(2-aminoethyl)-2-(4-fluorophenyl)-3-imidazo[1,2-a]pyrazinyl]-2-pyrimidinyl]amino]-2,2-dimethyl-1-propanol

> <PUBCHEM_IUPAC_NAME_MARKUP>
3-[[4-[8-(2-aminoethyl)-2-(4-fluorophenyl)imidazo[1,2-a]pyrazin-3-yl]pyrimidin-2-yl]amino]-2,2-dimethylpropan-1-ol

> <PUBCHEM_IUPAC_NAME>
3-[[4-[8-(2-aminoethyl)-2-(4-fluorophenyl)imidazo[1,2-a]pyrazin-3-yl]pyrimidin-2-yl]amino]-2,2-dimethylpropan-1-ol

> <PUBCHEM_IUPAC_SYSTEMATIC_NAME>
3-[[4-[8-(2-azanylethyl)-2-(4-fluorophenyl)imidazo[1,2-a]pyrazin-3-yl]pyrimidin-2-yl]amino]-2,2-dimethyl-propan-1-ol

> <PUBCHEM_IUPAC_TRADITIONAL_NAME>
3-[[4-[8-(2-aminoethyl)-2-(4-fluorophenyl)imidazo[1,2-a]pyrazin-3-yl]pyrimidin-2-yl]amino]-2,2-dimethyl-propan-1-ol

> <PUBCHEM_IUPAC_INCHI>
InChI=1S/C23H26FN7O/c1-23(2,14-32)13-28-22-27-10-8-17(29-22)20-19(15-3-5-16(24)6-4-15)30-21-18(7-9-25)26-11-12-31(20)21/h3-6,8,10-12,32H,7,9,13-14,25H2,1-2H3,(H,27,28,29)

> <PUBCHEM_IUPAC_INCHIKEY>
UTMRCMCLMBDPNW-UHFFFAOYSA-N

> <PUBCHEM_XLOGP3_AA>
3.2

> <PUBCHEM_EXACT_MASS>
435.21828664

> <PUBCHEM_MOLECULAR_FORMULA>
C23H26FN7O

> <PUBCHEM_MOLECULAR_WEIGHT>
435.5

> <PUBCHEM_SMILES>
CC(C)(CNC1=NC=CC(=N1)C2=C(N=C3N2C=CN=C3CCN)C4=CC=C(C=C4)F)CO

> <PUBCHEM_OPENEYE_CAN_SMILES>
CC(C)(CNC1=NC=CC(=N1)C2=C(N=C3N2C=CN=C3CCN)C4=CC=C(C=C4)F)CO

> <PUBCHEM_OPENEYE_ISO_SMILES>
CC(C)(CNC1=NC=CC(=N1)C2=C(N=C3N2C=CN=C3CCN)C4=CC=C(C=C4)F)CO

> <PUBCHEM_CACTVS_TPSA>
114

> <PUBCHEM_MONOISOTOPIC_WEIGHT>
435.21828664

> <PUBCHEM_TOTAL_CHARGE>
0

> <PUBCHEM_HEAVY_ATOM_COUNT>
32

> <PUBCHEM_ATOM_DEF_STEREO_COUNT>
0

> <PUBCHEM_ATOM_UDEF_STEREO_COUNT>
0

> <PUBCHEM_BOND_DEF_STEREO_COUNT>
0

> <PUBCHEM_BOND_UDEF_STEREO_COUNT>
0

> <PUBCHEM_ISOTOPIC_ATOM_COUNT>
0

> <PUBCHEM_COMPONENT_COUNT>
1

> <PUBCHEM_CACTVS_TAUTO_COUNT>
-1

> <PUBCHEM_COORDINATE_TYPE>
1
5
255

> <PUBCHEM_BONDANNOTATIONS>
15  17  8
16  20  8
19  24  8
22  26  8
23  28  8
23  29  8
24  27  8
28  30  8
29  31  8
30  32  8
31  32  8
4  15  8
4  16  8
4  22  8
5  16  8
5  17  8
6  18  8
6  19  8
7  18  8
7  27  8
8  20  8
8  26  8

$$$$
