49830995
  -OEChem-03202502192D

 57 58  0     0  0  0  0  0  0999 V2000
    6.3981   -3.5000    0.0000 O   0  0  0  0  0  0  0  0  0  0  0  0
    2.8680   -2.5242    0.0000 O   0  0  0  0  0  0  0  0  0  0  0  0
    2.8680   -0.4758    0.0000 O   0  0  0  0  0  0  0  0  0  0  0  0
    5.5320    1.0000    0.0000 O   0  0  0  0  0  0  0  0  0  0  0  0
    7.2641   -2.0000    0.0000 N   0  0  0  0  0  0  0  0  0  0  0  0
    7.2641    1.0000    0.0000 N   0  0  0  0  0  0  0  0  0  0  0  0
    8.1301   -2.5000    0.0000 C   0  0  0  0  0  0  0  0  0  0  0  0
    8.9962   -2.0000    0.0000 C   0  0  0  0  0  0  0  0  0  0  0  0
    8.1301   -3.5000    0.0000 C   0  0  0  0  0  0  0  0  0  0  0  0
    6.3981   -2.5000    0.0000 C   0  0  0  0  0  0  0  0  0  0  0  0
    7.2641   -1.0000    0.0000 C   0  0  0  0  0  0  0  0  0  0  0  0
    5.5320   -2.0000    0.0000 C   0  0  0  0  0  0  0  0  0  0  0  0
    6.3981   -0.5000    0.0000 C   0  0  0  0  0  0  0  0  0  0  0  0
    5.5320   -1.0000    0.0000 C   0  0  0  0  0  0  0  0  0  0  0  0
    9.8622   -2.5000    0.0000 C   0  0  0  0  0  0  0  0  0  0  0  0
    8.9962   -4.0000    0.0000 C   0  0  0  0  0  0  0  0  0  0  0  0
    4.6381   -2.5347    0.0000 C   0  0  0  0  0  0  0  0  0  0  0  0
    4.6381   -0.4653    0.0000 C   0  0  0  0  0  0  0  0  0  0  0  0
    6.3981    0.5000    0.0000 C   0  0  0  0  0  0  0  0  0  0  0  0
    3.7320   -2.0208    0.0000 C   0  0  0  0  0  0  0  0  0  0  0  0
    3.7320   -0.9792    0.0000 C   0  0  0  0  0  0  0  0  0  0  0  0
    7.2641    2.0000    0.0000 C   0  0  0  0  0  0  0  0  0  0  0  0
    8.1301    2.5000    0.0000 C   0  0  0  0  0  0  0  0  0  0  0  0
    8.1301    3.5000    0.0000 C   0  0  0  0  0  0  0  0  0  0  0  0
    8.9962    4.0000    0.0000 C   0  0  0  0  0  0  0  0  0  0  0  0
    2.8718   -3.5241    0.0000 C   0  0  0  0  0  0  0  0  0  0  0  0
    2.0000   -0.9725    0.0000 C   0  0  0  0  0  0  0  0  0  0  0  0
    8.6671   -2.8100    0.0000 H   0  0  0  0  0  0  0  0  0  0  0  0
    9.3947   -1.5250    0.0000 H   0  0  0  0  0  0  0  0  0  0  0  0
    8.5976   -1.5250    0.0000 H   0  0  0  0  0  0  0  0  0  0  0  0
    7.5195   -3.3923    0.0000 H   0  0  0  0  0  0  0  0  0  0  0  0
    7.9181   -4.0826    0.0000 H   0  0  0  0  0  0  0  0  0  0  0  0
    7.8010   -0.6900    0.0000 H   0  0  0  0  0  0  0  0  0  0  0  0
    9.5522   -3.0369    0.0000 H   0  0  0  0  0  0  0  0  0  0  0  0
   10.3991   -2.8100    0.0000 H   0  0  0  0  0  0  0  0  0  0  0  0
   10.1722   -1.9631    0.0000 H   0  0  0  0  0  0  0  0  0  0  0  0
    8.6862   -4.5369    0.0000 H   0  0  0  0  0  0  0  0  0  0  0  0
    9.5331   -4.3100    0.0000 H   0  0  0  0  0  0  0  0  0  0  0  0
    9.3062   -3.4631    0.0000 H   0  0  0  0  0  0  0  0  0  0  0  0
    4.6453   -3.1546    0.0000 H   0  0  0  0  0  0  0  0  0  0  0  0
    4.6453    0.1546    0.0000 H   0  0  0  0  0  0  0  0  0  0  0  0
    7.0520    2.5826    0.0000 H   0  0  0  0  0  0  0  0  0  0  0  0
    6.6535    1.8923    0.0000 H   0  0  0  0  0  0  0  0  0  0  0  0
    7.8010    0.6900    0.0000 H   0  0  0  0  0  0  0  0  0  0  0  0
    8.3422    1.9174    0.0000 H   0  0  0  0  0  0  0  0  0  0  0  0
    8.7407    2.6077    0.0000 H   0  0  0  0  0  0  0  0  0  0  0  0
    7.9181    4.0826    0.0000 H   0  0  0  0  0  0  0  0  0  0  0  0
    7.5195    3.3923    0.0000 H   0  0  0  0  0  0  0  0  0  0  0  0
    9.3062    3.4631    0.0000 H   0  0  0  0  0  0  0  0  0  0  0  0
    9.5331    4.3100    0.0000 H   0  0  0  0  0  0  0  0  0  0  0  0
    8.6862    4.5369    0.0000 H   0  0  0  0  0  0  0  0  0  0  0  0
    2.2518   -3.5265    0.0000 H   0  0  0  0  0  0  0  0  0  0  0  0
    2.8742   -4.1441    0.0000 H   0  0  0  0  0  0  0  0  0  0  0  0
    3.4918   -3.5218    0.0000 H   0  0  0  0  0  0  0  0  0  0  0  0
    1.6921   -0.4344    0.0000 H   0  0  0  0  0  0  0  0  0  0  0  0
    1.4619   -1.2804    0.0000 H   0  0  0  0  0  0  0  0  0  0  0  0
    2.3079   -1.5106    0.0000 H   0  0  0  0  0  0  0  0  0  0  0  0
  1 10  2  0  0  0  0
  2 20  1  0  0  0  0
  2 26  1  0  0  0  0
  3 21  1  0  0  0  0
  3 27  1  0  0  0  0
  4 19  2  0  0  0  0
  5  7  1  0  0  0  0
  5 10  1  0  0  0  0
  5 11  1  0  0  0  0
  6 19  1  0  0  0  0
  6 22  1  0  0  0  0
  6 44  1  0  0  0  0
  7  8  1  0  0  0  0
  7  9  1  0  0  0  0
  7 28  1  0  0  0  0
  8 15  1  0  0  0  0
  8 29  1  0  0  0  0
  8 30  1  0  0  0  0
  9 16  1  0  0  0  0
  9 31  1  0  0  0  0
  9 32  1  0  0  0  0
 10 12  1  0  0  0  0
 11 13  2  0  0  0  0
 11 33  1  0  0  0  0
 12 14  1  0  0  0  0
 12 17  2  0  0  0  0
 13 14  1  0  0  0  0
 13 19  1  0  0  0  0
 14 18  2  0  0  0  0
 15 34  1  0  0  0  0
 15 35  1  0  0  0  0
 15 36  1  0  0  0  0
 16 37  1  0  0  0  0
 16 38  1  0  0  0  0
 16 39  1  0  0  0  0
 17 20  1  0  0  0  0
 17 40  1  0  0  0  0
 18 21  1  0  0  0  0
 18 41  1  0  0  0  0
 20 21  2  0  0  0  0
 22 23  1  0  0  0  0
 22 42  1  0  0  0  0
 22 43  1  0  0  0  0
 23 24  1  0  0  0  0
 23 45  1  0  0  0  0
 23 46  1  0  0  0  0
 24 25  1  0  0  0  0
 24 47  1  0  0  0  0
 24 48  1  0  0  0  0
 25 49  1  0  0  0  0
 25 50  1  0  0  0  0
 25 51  1  0  0  0  0
 26 52  1  0  0  0  0
 26 53  1  0  0  0  0
 26 54  1  0  0  0  0
 27 55  1  0  0  0  0
 27 56  1  0  0  0  0
 27 57  1  0  0  0  0
M  END
> <PUBCHEM_COMPOUND_CID>
49830995

> <PUBCHEM_COMPOUND_CANONICALIZED>
1

> <PUBCHEM_CACTVS_COMPLEXITY>
544

> <PUBCHEM_CACTVS_HBOND_ACCEPTOR>
4

> <PUBCHEM_CACTVS_HBOND_DONOR>
1

> <PUBCHEM_CACTVS_ROTATABLE_BOND>
9

> <PUBCHEM_CACTVS_SUBSKEYS>
AAADceB7OAAAAAAAAAAAAAAAAAAAAAAAAAAwQAAAAAAAAACBAAAAHgAQAAAADCzBmAYyBoPABACIAiFWUACCCAAkIAAAiIEOjMgNJjKEtBuEMSpk1hGKqce637LOoAABAAAQQABAAAIAACCAAAAAAAAAAA==

> <PUBCHEM_IUPAC_OPENEYE_NAME>
N-butyl-2-(1-ethylpropyl)-6,7-dimethoxy-1-oxo-isoquinoline-4-carboxamide

> <PUBCHEM_IUPAC_CAS_NAME>
N-butyl-6,7-dimethoxy-1-oxo-2-pentan-3-yl-4-isoquinolinecarboxamide

> <PUBCHEM_IUPAC_NAME_MARKUP>
<I>N</I>-butyl-6,7-dimethoxy-1-oxo-2-pentan-3-ylisoquinoline-4-carboxamide

> <PUBCHEM_IUPAC_NAME>
N-butyl-6,7-dimethoxy-1-oxo-2-pentan-3-ylisoquinoline-4-carboxamide

> <PUBCHEM_IUPAC_SYSTEMATIC_NAME>
N-butyl-6,7-dimethoxy-1-oxidanylidene-2-pentan-3-yl-isoquinoline-4-carboxamide

> <PUBCHEM_IUPAC_TRADITIONAL_NAME>
N-butyl-2-(1-ethylpropyl)-1-keto-6,7-dimethoxy-isoquinoline-4-carboxamide

> <PUBCHEM_IUPAC_INCHI>
InChI=1S/C21H30N2O4/c1-6-9-10-22-20(24)17-13-23(14(7-2)8-3)21(25)16-12-19(27-5)18(26-4)11-15(16)17/h11-14H,6-10H2,1-5H3,(H,22,24)

> <PUBCHEM_IUPAC_INCHIKEY>
WDKDZAISMRAXQL-UHFFFAOYSA-N

> <PUBCHEM_XLOGP3_AA>
3.6

> <PUBCHEM_EXACT_MASS>
374.22055744

> <PUBCHEM_MOLECULAR_FORMULA>
C21H30N2O4

> <PUBCHEM_MOLECULAR_WEIGHT>
374.5

> <PUBCHEM_SMILES>
CCCCNC(=O)C1=CN(C(=O)C2=CC(=C(C=C21)OC)OC)C(CC)CC

> <PUBCHEM_OPENEYE_CAN_SMILES>
CCCCNC(=O)C1=CN(C(=O)C2=CC(=C(C=C21)OC)OC)C(CC)CC

> <PUBCHEM_OPENEYE_ISO_SMILES>
CCCCNC(=O)C1=CN(C(=O)C2=CC(=C(C=C21)OC)OC)C(CC)CC

> <PUBCHEM_CACTVS_TPSA>
67.9

> <PUBCHEM_MONOISOTOPIC_WEIGHT>
374.22055744

> <PUBCHEM_TOTAL_CHARGE>
0

> <PUBCHEM_HEAVY_ATOM_COUNT>
27

> <PUBCHEM_ATOM_DEF_STEREO_COUNT>
0

> <PUBCHEM_ATOM_UDEF_STEREO_COUNT>
0

> <PUBCHEM_BOND_DEF_STEREO_COUNT>
0

> <PUBCHEM_BOND_UDEF_STEREO_COUNT>
0

> <PUBCHEM_ISOTOPIC_ATOM_COUNT>
0

> <PUBCHEM_COMPONENT_COUNT>
1

> <PUBCHEM_CACTVS_TAUTO_COUNT>
-1

> <PUBCHEM_COORDINATE_TYPE>
1
5
255

> <PUBCHEM_BONDANNOTATIONS>
10  12  8
11  13  8
12  14  8
12  17  8
13  14  8
14  18  8
17  20  8
18  21  8
20  21  8
5  10  8
5  11  8

$$$$
