21979999
  -OEChem-03202503032D

 51 54  0     1  0  0  0  0  0999 V2000
    2.3660    2.1300    0.0000 F   0  0  0  0  0  0  0  0  0  0  0  0
    2.0000    0.7640    0.0000 F   0  0  0  0  0  0  0  0  0  0  0  0
    3.3660    0.3980    0.0000 F   0  0  0  0  0  0  0  0  0  0  0  0
    3.7320    1.7640    0.0000 O   0  0  0  0  0  0  0  0  0  0  0  0
   12.9580    0.1300    0.0000 N   0  0  3  0  0  0  0  0  0  0  0  0
    9.8744   -1.5407    0.0000 N   0  0  0  0  0  0  0  0  0  0  0  0
   13.5458   -0.6790    0.0000 C   0  0  3  0  0  0  0  0  0  0  0  0
   14.4969   -0.3700    0.0000 C   0  0  0  0  0  0  0  0  0  0  0  0
   13.5458    0.9391    0.0000 C   0  0  0  0  0  0  0  0  0  0  0  0
   14.4969    0.6300    0.0000 C   0  0  0  0  0  0  0  0  0  0  0  0
   11.9580    0.1300    0.0000 C   0  0  0  0  0  0  0  0  0  0  0  0
   13.2368   -1.6300    0.0000 C   0  0  0  0  0  0  0  0  0  0  0  0
   11.4580   -0.7360    0.0000 C   0  0  0  0  0  0  0  0  0  0  0  0
   10.4580   -0.7360    0.0000 C   0  0  0  0  0  0  0  0  0  0  0  0
    9.8744    0.0687    0.0000 C   0  0  0  0  0  0  0  0  0  0  0  0
    8.9282   -0.2360    0.0000 C   0  0  0  0  0  0  0  0  0  0  0  0
    8.9282   -1.2360    0.0000 C   0  0  0  0  0  0  0  0  0  0  0  0
    8.0622    0.2640    0.0000 C   0  0  0  0  0  0  0  0  0  0  0  0
    8.0622   -1.7360    0.0000 C   0  0  0  0  0  0  0  0  0  0  0  0
    7.1962   -0.2360    0.0000 C   0  0  0  0  0  0  0  0  0  0  0  0
    7.1962   -1.2360    0.0000 C   0  0  0  0  0  0  0  0  0  0  0  0
    6.3301    0.2640    0.0000 C   0  0  0  0  0  0  0  0  0  0  0  0
    5.4641   -0.2360    0.0000 C   0  0  0  0  0  0  0  0  0  0  0  0
    6.3301    1.2640    0.0000 C   0  0  0  0  0  0  0  0  0  0  0  0
    4.5981    0.2640    0.0000 C   0  0  0  0  0  0  0  0  0  0  0  0
    5.4641    1.7640    0.0000 C   0  0  0  0  0  0  0  0  0  0  0  0
    4.5981    1.2640    0.0000 C   0  0  0  0  0  0  0  0  0  0  0  0
    2.8660    1.2640    0.0000 C   0  0  0  0  0  0  0  0  0  0  0  0
   12.9335   -0.7760    0.0000 H   0  0  0  0  0  0  0  0  0  0  0  0
   14.6258   -0.9764    0.0000 H   0  0  0  0  0  0  0  0  0  0  0  0
   15.1135   -0.3052    0.0000 H   0  0  0  0  0  0  0  0  0  0  0  0
   13.7980    1.5055    0.0000 H   0  0  0  0  0  0  0  0  0  0  0  0
   13.0089    1.2491    0.0000 H   0  0  0  0  0  0  0  0  0  0  0  0
   15.1135    0.5652    0.0000 H   0  0  0  0  0  0  0  0  0  0  0  0
   14.6258    1.2365    0.0000 H   0  0  0  0  0  0  0  0  0  0  0  0
   12.0657    0.7406    0.0000 H   0  0  0  0  0  0  0  0  0  0  0  0
   11.3754    0.3421    0.0000 H   0  0  0  0  0  0  0  0  0  0  0  0
   12.6471   -1.4384    0.0000 H   0  0  0  0  0  0  0  0  0  0  0  0
   13.0452   -2.2197    0.0000 H   0  0  0  0  0  0  0  0  0  0  0  0
   13.8265   -1.8216    0.0000 H   0  0  0  0  0  0  0  0  0  0  0  0
   11.3504   -1.3466    0.0000 H   0  0  0  0  0  0  0  0  0  0  0  0
   12.0406   -0.9480    0.0000 H   0  0  0  0  0  0  0  0  0  0  0  0
   10.0670    0.6581    0.0000 H   0  0  0  0  0  0  0  0  0  0  0  0
   10.0670   -2.1300    0.0000 H   0  0  0  0  0  0  0  0  0  0  0  0
    8.0622    0.8840    0.0000 H   0  0  0  0  0  0  0  0  0  0  0  0
    8.0622   -2.3560    0.0000 H   0  0  0  0  0  0  0  0  0  0  0  0
    6.6592   -1.5460    0.0000 H   0  0  0  0  0  0  0  0  0  0  0  0
    5.4641   -0.8560    0.0000 H   0  0  0  0  0  0  0  0  0  0  0  0
    6.8671    1.5740    0.0000 H   0  0  0  0  0  0  0  0  0  0  0  0
    4.0611   -0.0460    0.0000 H   0  0  0  0  0  0  0  0  0  0  0  0
    5.4641    2.3840    0.0000 H   0  0  0  0  0  0  0  0  0  0  0  0
  1 28  1  0  0  0  0
  2 28  1  0  0  0  0
  3 28  1  0  0  0  0
  4 27  1  0  0  0  0
  4 28  1  0  0  0  0
  5  7  1  0  0  0  0
  5  9  1  0  0  0  0
  5 11  1  0  0  0  0
  6 14  1  0  0  0  0
  6 17  1  0  0  0  0
  6 44  1  0  0  0  0
  7  8  1  0  0  0  0
  7 12  1  0  0  0  0
  7 29  1  0  0  0  0
  8 10  1  0  0  0  0
  8 30  1  0  0  0  0
  8 31  1  0  0  0  0
  9 10  1  0  0  0  0
  9 32  1  0  0  0  0
  9 33  1  0  0  0  0
 10 34  1  0  0  0  0
 10 35  1  0  0  0  0
 11 13  1  0  0  0  0
 11 36  1  0  0  0  0
 11 37  1  0  0  0  0
 12 38  1  0  0  0  0
 12 39  1  0  0  0  0
 12 40  1  0  0  0  0
 13 14  1  0  0  0  0
 13 41  1  0  0  0  0
 13 42  1  0  0  0  0
 14 15  2  0  0  0  0
 15 16  1  0  0  0  0
 15 43  1  0  0  0  0
 16 17  2  0  0  0  0
 16 18  1  0  0  0  0
 17 19  1  0  0  0  0
 18 20  2  0  0  0  0
 18 45  1  0  0  0  0
 19 21  2  0  0  0  0
 19 46  1  0  0  0  0
 20 21  1  0  0  0  0
 20 22  1  0  0  0  0
 21 47  1  0  0  0  0
 22 23  2  0  0  0  0
 22 24  1  0  0  0  0
 23 25  1  0  0  0  0
 23 48  1  0  0  0  0
 24 26  2  0  0  0  0
 24 49  1  0  0  0  0
 25 27  2  0  0  0  0
 25 50  1  0  0  0  0
 26 27  1  0  0  0  0
 26 51  1  0  0  0  0
M  END
> <PUBCHEM_COMPOUND_CID>
21979999

> <PUBCHEM_COMPOUND_CANONICALIZED>
1

> <PUBCHEM_CACTVS_COMPLEXITY>
507

> <PUBCHEM_CACTVS_HBOND_ACCEPTOR>
5

> <PUBCHEM_CACTVS_HBOND_DONOR>
1

> <PUBCHEM_CACTVS_ROTATABLE_BOND>
5

> <PUBCHEM_CACTVS_SUBSKEYS>
AAADceB7IYAAAAAAAAAAAAAAAAAAAWLAAAAwYAAAAAAAAFgB9AAAHwAQAAAADCzBnhQyxvPJlACgAyRiRACCiCAhIiAImSA+bJgMJuLE8ZuEMChk0BHI6AeQwPAOqAACAAACAABQAAQAAAQAAAAAAAAAAA==

> <PUBCHEM_IUPAC_OPENEYE_NAME>
2-[2-(2-methylpyrrolidin-1-yl)ethyl]-5-[4-(trifluoromethoxy)phenyl]-1H-indole

> <PUBCHEM_IUPAC_CAS_NAME>
2-[2-(2-methyl-1-pyrrolidinyl)ethyl]-5-[4-(trifluoromethoxy)phenyl]-1H-indole

> <PUBCHEM_IUPAC_NAME_MARKUP>
2-[2-(2-methylpyrrolidin-1-yl)ethyl]-5-[4-(trifluoromethoxy)phenyl]-1<I>H</I>-indole

> <PUBCHEM_IUPAC_NAME>
2-[2-(2-methylpyrrolidin-1-yl)ethyl]-5-[4-(trifluoromethoxy)phenyl]-1H-indole

> <PUBCHEM_IUPAC_SYSTEMATIC_NAME>
2-[2-(2-methylpyrrolidin-1-yl)ethyl]-5-[4-(trifluoromethyloxy)phenyl]-1H-indole

> <PUBCHEM_IUPAC_TRADITIONAL_NAME>
2-[2-(2-methylpyrrolidino)ethyl]-5-[4-(trifluoromethoxy)phenyl]-1H-indole

> <PUBCHEM_IUPAC_INCHI>
InChI=1S/C22H23F3N2O/c1-15-3-2-11-27(15)12-10-19-14-18-13-17(6-9-21(18)26-19)16-4-7-20(8-5-16)28-22(23,24)25/h4-9,13-15,26H,2-3,10-12H2,1H3

> <PUBCHEM_IUPAC_INCHIKEY>
MHHTXOIOMYDUOQ-UHFFFAOYSA-N

> <PUBCHEM_XLOGP3_AA>
6.1

> <PUBCHEM_EXACT_MASS>
388.17624785

> <PUBCHEM_MOLECULAR_FORMULA>
C22H23F3N2O

> <PUBCHEM_MOLECULAR_WEIGHT>
388.4

> <PUBCHEM_SMILES>
CC1CCCN1CCC2=CC3=C(N2)C=CC(=C3)C4=CC=C(C=C4)OC(F)(F)F

> <PUBCHEM_OPENEYE_CAN_SMILES>
CC1CCCN1CCC2=CC3=C(N2)C=CC(=C3)C4=CC=C(C=C4)OC(F)(F)F

> <PUBCHEM_OPENEYE_ISO_SMILES>
CC1CCCN1CCC2=CC3=C(N2)C=CC(=C3)C4=CC=C(C=C4)OC(F)(F)F

> <PUBCHEM_CACTVS_TPSA>
28.3

> <PUBCHEM_MONOISOTOPIC_WEIGHT>
388.17624785

> <PUBCHEM_TOTAL_CHARGE>
0

> <PUBCHEM_HEAVY_ATOM_COUNT>
28

> <PUBCHEM_ATOM_DEF_STEREO_COUNT>
0

> <PUBCHEM_ATOM_UDEF_STEREO_COUNT>
1

> <PUBCHEM_BOND_DEF_STEREO_COUNT>
0

> <PUBCHEM_BOND_UDEF_STEREO_COUNT>
0

> <PUBCHEM_ISOTOPIC_ATOM_COUNT>
0

> <PUBCHEM_COMPONENT_COUNT>
1

> <PUBCHEM_CACTVS_TAUTO_COUNT>
-1

> <PUBCHEM_COORDINATE_TYPE>
1
5
255

> <PUBCHEM_BONDANNOTATIONS>
14  15  8
15  16  8
16  17  8
16  18  8
17  19  8
18  20  8
19  21  8
20  21  8
22  23  8
22  24  8
23  25  8
24  26  8
25  27  8
26  27  8
6  14  8
6  17  8
7  12  3

$$$$
