5329880
  -OEChem-03202500352D

 46 49  0     0  0  0  0  0  0999 V2000
    7.5870   -5.6276    0.0000 O   0  0  0  0  0  0  0  0  0  0  0  0
    3.7320    1.1276    0.0000 O   0  0  0  0  0  0  0  0  0  0  0  0
    7.8600   -3.8724    0.0000 N   0  0  0  0  0  0  0  0  0  0  0  0
    5.4641    1.1276    0.0000 N   0  0  0  0  0  0  0  0  0  0  0  0
    4.5981    2.6276    0.0000 N   0  0  0  0  0  0  0  0  0  0  0  0
    6.3301   -3.3724    0.0000 C   0  0  0  0  0  0  0  0  0  0  0  0
    7.2764   -3.0676    0.0000 C   0  0  0  0  0  0  0  0  0  0  0  0
    5.4641   -2.8724    0.0000 C   0  0  0  0  0  0  0  0  0  0  0  0
    6.3301   -4.3724    0.0000 C   0  0  0  0  0  0  0  0  0  0  0  0
    5.4641   -1.8724    0.0000 C   0  0  0  0  0  0  0  0  0  0  0  0
    7.2764   -4.6771    0.0000 C   0  0  0  0  0  0  0  0  0  0  0  0
    4.5981   -3.3724    0.0000 C   0  0  0  0  0  0  0  0  0  0  0  0
    5.4641   -4.8724    0.0000 C   0  0  0  0  0  0  0  0  0  0  0  0
    4.5981   -4.3724    0.0000 C   0  0  0  0  0  0  0  0  0  0  0  0
    6.3301   -1.3724    0.0000 C   0  0  0  0  0  0  0  0  0  0  0  0
    4.5981   -1.3724    0.0000 C   0  0  0  0  0  0  0  0  0  0  0  0
    5.4641    0.1276    0.0000 C   0  0  0  0  0  0  0  0  0  0  0  0
    6.3301   -0.3724    0.0000 C   0  0  0  0  0  0  0  0  0  0  0  0
    4.5981   -0.3724    0.0000 C   0  0  0  0  0  0  0  0  0  0  0  0
    3.7320    3.1276    0.0000 C   0  0  0  0  0  0  0  0  0  0  0  0
    4.5981    1.6276    0.0000 C   0  0  0  0  0  0  0  0  0  0  0  0
    2.8660    4.6276    0.0000 C   0  0  0  0  0  0  0  0  0  0  0  0
    3.7320    4.1276    0.0000 C   0  0  0  0  0  0  0  0  0  0  0  0
    2.8660    2.6276    0.0000 C   0  0  0  0  0  0  0  0  0  0  0  0
    2.0000    4.1276    0.0000 C   0  0  0  0  0  0  0  0  0  0  0  0
    2.0000    3.1276    0.0000 C   0  0  0  0  0  0  0  0  0  0  0  0
    2.8660    5.6276    0.0000 C   0  0  0  0  0  0  0  0  0  0  0  0
    7.8137   -2.7584    0.0000 H   0  0  0  0  0  0  0  0  0  0  0  0
    7.0253   -2.5007    0.0000 H   0  0  0  0  0  0  0  0  0  0  0  0
    8.4800   -3.8724    0.0000 H   0  0  0  0  0  0  0  0  0  0  0  0
    4.0611   -3.0624    0.0000 H   0  0  0  0  0  0  0  0  0  0  0  0
    5.4641   -5.4924    0.0000 H   0  0  0  0  0  0  0  0  0  0  0  0
    4.0611   -4.6824    0.0000 H   0  0  0  0  0  0  0  0  0  0  0  0
    6.8671   -1.6824    0.0000 H   0  0  0  0  0  0  0  0  0  0  0  0
    4.0611   -1.6824    0.0000 H   0  0  0  0  0  0  0  0  0  0  0  0
    6.8671   -0.0624    0.0000 H   0  0  0  0  0  0  0  0  0  0  0  0
    4.0611   -0.0624    0.0000 H   0  0  0  0  0  0  0  0  0  0  0  0
    6.0010    1.4376    0.0000 H   0  0  0  0  0  0  0  0  0  0  0  0
    5.1350    2.9376    0.0000 H   0  0  0  0  0  0  0  0  0  0  0  0
    4.2690    4.4376    0.0000 H   0  0  0  0  0  0  0  0  0  0  0  0
    2.8660    2.0076    0.0000 H   0  0  0  0  0  0  0  0  0  0  0  0
    1.4631    4.4376    0.0000 H   0  0  0  0  0  0  0  0  0  0  0  0
    1.4631    2.8176    0.0000 H   0  0  0  0  0  0  0  0  0  0  0  0
    3.4860    5.6276    0.0000 H   0  0  0  0  0  0  0  0  0  0  0  0
    2.8660    6.2476    0.0000 H   0  0  0  0  0  0  0  0  0  0  0  0
    2.2460    5.6276    0.0000 H   0  0  0  0  0  0  0  0  0  0  0  0
  1 11  2  0  0  0  0
  2 21  2  0  0  0  0
  3  7  1  0  0  0  0
  3 11  1  0  0  0  0
  3 30  1  0  0  0  0
  4 17  1  0  0  0  0
  4 21  1  0  0  0  0
  4 38  1  0  0  0  0
  5 20  1  0  0  0  0
  5 21  1  0  0  0  0
  5 39  1  0  0  0  0
  6  7  1  0  0  0  0
  6  8  2  0  0  0  0
  6  9  1  0  0  0  0
  7 28  1  0  0  0  0
  7 29  1  0  0  0  0
  8 10  1  0  0  0  0
  8 12  1  0  0  0  0
  9 11  1  0  0  0  0
  9 13  2  0  0  0  0
 10 15  2  0  0  0  0
 10 16  1  0  0  0  0
 12 14  2  0  0  0  0
 12 31  1  0  0  0  0
 13 14  1  0  0  0  0
 13 32  1  0  0  0  0
 14 33  1  0  0  0  0
 15 18  1  0  0  0  0
 15 34  1  0  0  0  0
 16 19  2  0  0  0  0
 16 35  1  0  0  0  0
 17 18  2  0  0  0  0
 17 19  1  0  0  0  0
 18 36  1  0  0  0  0
 19 37  1  0  0  0  0
 20 23  1  0  0  0  0
 20 24  2  0  0  0  0
 22 23  2  0  0  0  0
 22 25  1  0  0  0  0
 22 27  1  0  0  0  0
 23 40  1  0  0  0  0
 24 26  1  0  0  0  0
 24 41  1  0  0  0  0
 25 26  2  0  0  0  0
 25 42  1  0  0  0  0
 26 43  1  0  0  0  0
 27 44  1  0  0  0  0
 27 45  1  0  0  0  0
 27 46  1  0  0  0  0
M  END
> <PUBCHEM_COMPOUND_CID>
5329880

> <PUBCHEM_COMPOUND_CANONICALIZED>
1

> <PUBCHEM_CACTVS_COMPLEXITY>
544

> <PUBCHEM_CACTVS_HBOND_ACCEPTOR>
2

> <PUBCHEM_CACTVS_HBOND_DONOR>
3

> <PUBCHEM_CACTVS_ROTATABLE_BOND>
3

> <PUBCHEM_CACTVS_SUBSKEYS>
AAADceB7MAAAAAAAAAAAAAAAAAAAAWAAAAAwYMAAAAAAAFgBUAAAHgAQAAAADAjBmAQzwILAAACIAiVSUACCAAAlAgAIiIEIZMiIIDLAlZGEIQholgLIyacciMCOiAACQAAQAAAQAASAACAAAAAAAAAAAA==

> <PUBCHEM_IUPAC_OPENEYE_NAME>
1-(m-tolyl)-3-[4-(1-oxoisoindolin-4-yl)phenyl]urea

> <PUBCHEM_IUPAC_CAS_NAME>
1-(3-methylphenyl)-3-[4-(1-oxo-2,3-dihydroisoindol-4-yl)phenyl]urea

> <PUBCHEM_IUPAC_NAME_MARKUP>
1-(3-methylphenyl)-3-[4-(1-oxo-2,3-dihydroisoindol-4-yl)phenyl]urea

> <PUBCHEM_IUPAC_NAME>
1-(3-methylphenyl)-3-[4-(1-oxo-2,3-dihydroisoindol-4-yl)phenyl]urea

> <PUBCHEM_IUPAC_SYSTEMATIC_NAME>
1-(3-methylphenyl)-3-[4-(1-oxidanylidene-2,3-dihydroisoindol-4-yl)phenyl]urea

> <PUBCHEM_IUPAC_TRADITIONAL_NAME>
1-[4-(1-ketoisoindolin-4-yl)phenyl]-3-(m-tolyl)urea

> <PUBCHEM_IUPAC_INCHI>
InChI=1S/C22H19N3O2/c1-14-4-2-5-17(12-14)25-22(27)24-16-10-8-15(9-11-16)18-6-3-7-19-20(18)13-23-21(19)26/h2-12H,13H2,1H3,(H,23,26)(H2,24,25,27)

> <PUBCHEM_IUPAC_INCHIKEY>
ZAARMHXLYCHRAK-UHFFFAOYSA-N

> <PUBCHEM_XLOGP3_AA>
3.3

> <PUBCHEM_EXACT_MASS>
357.147726857

> <PUBCHEM_MOLECULAR_FORMULA>
C22H19N3O2

> <PUBCHEM_MOLECULAR_WEIGHT>
357.4

> <PUBCHEM_SMILES>
CC1=CC(=CC=C1)NC(=O)NC2=CC=C(C=C2)C3=C4CNC(=O)C4=CC=C3

> <PUBCHEM_OPENEYE_CAN_SMILES>
CC1=CC(=CC=C1)NC(=O)NC2=CC=C(C=C2)C3=C4CNC(=O)C4=CC=C3

> <PUBCHEM_OPENEYE_ISO_SMILES>
CC1=CC(=CC=C1)NC(=O)NC2=CC=C(C=C2)C3=C4CNC(=O)C4=CC=C3

> <PUBCHEM_CACTVS_TPSA>
70.2

> <PUBCHEM_MONOISOTOPIC_WEIGHT>
357.147726857

> <PUBCHEM_TOTAL_CHARGE>
0

> <PUBCHEM_HEAVY_ATOM_COUNT>
27

> <PUBCHEM_ATOM_DEF_STEREO_COUNT>
0

> <PUBCHEM_ATOM_UDEF_STEREO_COUNT>
0

> <PUBCHEM_BOND_DEF_STEREO_COUNT>
0

> <PUBCHEM_BOND_UDEF_STEREO_COUNT>
0

> <PUBCHEM_ISOTOPIC_ATOM_COUNT>
0

> <PUBCHEM_COMPONENT_COUNT>
1

> <PUBCHEM_CACTVS_TAUTO_COUNT>
-1

> <PUBCHEM_COORDINATE_TYPE>
1
5
255

> <PUBCHEM_BONDANNOTATIONS>
10  15  8
10  16  8
12  14  8
13  14  8
15  18  8
16  19  8
17  18  8
17  19  8
20  23  8
20  24  8
22  23  8
22  25  8
24  26  8
25  26  8
6  8  8
6  9  8
8  12  8
9  13  8

$$$$
