49830456
  -OEChem-03202503482D

 30 31  0     0  0  0  0  0  0999 V2000
    6.3919   -0.2027    0.0000 S   0  0  0  0  0  0  0  0  0  0  0  0
    2.5369    3.0420    0.0000 O   0  0  0  0  0  0  0  0  0  0  0  0
    4.2690    0.0420    0.0000 N   0  0  0  0  0  0  0  0  0  0  0  0
    6.0812   -2.7627    0.0000 N   0  0  0  0  0  0  0  0  0  0  0  0
    3.4030   -1.4580    0.0000 N   0  0  0  0  0  0  0  0  0  0  0  0
    4.2690   -2.9580    0.0000 N   0  0  0  0  0  0  0  0  0  0  0  0
    5.1350   -1.4580    0.0000 C   0  0  0  0  0  0  0  0  0  0  0  0
    3.4030    0.5420    0.0000 C   0  0  0  0  0  0  0  0  0  0  0  0
    4.2690   -0.9580    0.0000 C   0  0  0  0  0  0  0  0  0  0  0  0
    3.4030    1.5420    0.0000 C   0  0  0  0  0  0  0  0  0  0  0  0
    5.1350   -2.4580    0.0000 C   0  0  0  0  0  0  0  0  0  0  0  0
    6.0812   -1.1532    0.0000 C   0  0  0  0  0  0  0  0  0  0  0  0
    6.6648   -1.9580    0.0000 C   0  0  0  0  0  0  0  0  0  0  0  0
    2.5369    2.0420    0.0000 C   0  0  0  0  0  0  0  0  0  0  0  0
    3.4030   -2.4580    0.0000 C   0  0  0  0  0  0  0  0  0  0  0  0
    7.3704    0.0035    0.0000 C   0  0  0  0  0  0  0  0  0  0  0  0
    2.7924    0.6497    0.0000 H   0  0  0  0  0  0  0  0  0  0  0  0
    3.1909   -0.0406    0.0000 H   0  0  0  0  0  0  0  0  0  0  0  0
    4.0135    1.4344    0.0000 H   0  0  0  0  0  0  0  0  0  0  0  0
    3.6150    2.1246    0.0000 H   0  0  0  0  0  0  0  0  0  0  0  0
    4.8059    0.3520    0.0000 H   0  0  0  0  0  0  0  0  0  0  0  0
    6.2738   -3.3520    0.0000 H   0  0  0  0  0  0  0  0  0  0  0  0
    7.2848   -1.9580    0.0000 H   0  0  0  0  0  0  0  0  0  0  0  0
    1.9264    2.1497    0.0000 H   0  0  0  0  0  0  0  0  0  0  0  0
    2.3249    1.4594    0.0000 H   0  0  0  0  0  0  0  0  0  0  0  0
    2.8660   -2.7680    0.0000 H   0  0  0  0  0  0  0  0  0  0  0  0
    7.4983   -0.6032    0.0000 H   0  0  0  0  0  0  0  0  0  0  0  0
    7.9771    0.1314    0.0000 H   0  0  0  0  0  0  0  0  0  0  0  0
    7.2425    0.6102    0.0000 H   0  0  0  0  0  0  0  0  0  0  0  0
    2.0000    3.3520    0.0000 H   0  0  0  0  0  0  0  0  0  0  0  0
  1 12  1  0  0  0  0
  1 16  1  0  0  0  0
  2 14  1  0  0  0  0
  2 30  1  0  0  0  0
  3  8  1  0  0  0  0
  3  9  1  0  0  0  0
  3 21  1  0  0  0  0
  4 11  1  0  0  0  0
  4 13  1  0  0  0  0
  4 22  1  0  0  0  0
  5  9  2  0  0  0  0
  5 15  1  0  0  0  0
  6 11  1  0  0  0  0
  6 15  2  0  0  0  0
  7  9  1  0  0  0  0
  7 11  2  0  0  0  0
  7 12  1  0  0  0  0
  8 10  1  0  0  0  0
  8 17  1  0  0  0  0
  8 18  1  0  0  0  0
 10 14  1  0  0  0  0
 10 19  1  0  0  0  0
 10 20  1  0  0  0  0
 12 13  2  0  0  0  0
 13 23  1  0  0  0  0
 14 24  1  0  0  0  0
 14 25  1  0  0  0  0
 15 26  1  0  0  0  0
 16 27  1  0  0  0  0
 16 28  1  0  0  0  0
 16 29  1  0  0  0  0
M  END
> <PUBCHEM_COMPOUND_CID>
49830456

> <PUBCHEM_COMPOUND_CANONICALIZED>
1

> <PUBCHEM_CACTVS_COMPLEXITY>
219

> <PUBCHEM_CACTVS_HBOND_ACCEPTOR>
5

> <PUBCHEM_CACTVS_HBOND_DONOR>
3

> <PUBCHEM_CACTVS_ROTATABLE_BOND>
5

> <PUBCHEM_CACTVS_SUBSKEYS>
AAADccBzoABAAAAAAAAAAAAAAAAAAWAAAAAsAAAAAAAAAFgB+AAAHgQQCAAADADh2wavsd7JkgigAhJnZACCgCmxCLAB2bwoRJiIOEBgyMEERAxKEALAQCAAAAAIAAAAAAAAAAAAAAAAAAAAAAAAAAAAAA==

> <PUBCHEM_IUPAC_OPENEYE_NAME>
3-[(5-methylsulfanyl-7H-pyrrolo[2,3-d]pyrimidin-4-yl)amino]propan-1-ol

> <PUBCHEM_IUPAC_CAS_NAME>
3-[[5-(methylthio)-7H-pyrrolo[2,3-d]pyrimidin-4-yl]amino]-1-propanol

> <PUBCHEM_IUPAC_NAME_MARKUP>
3-[(5-methylsulfanyl-7<I>H</I>-pyrrolo[2,3-d]pyrimidin-4-yl)amino]propan-1-ol

> <PUBCHEM_IUPAC_NAME>
3-[(5-methylsulfanyl-7H-pyrrolo[2,3-d]pyrimidin-4-yl)amino]propan-1-ol

> <PUBCHEM_IUPAC_SYSTEMATIC_NAME>
3-[(5-methylsulfanyl-7H-pyrrolo[2,3-d]pyrimidin-4-yl)amino]propan-1-ol

> <PUBCHEM_IUPAC_TRADITIONAL_NAME>
3-[[5-(methylthio)-7H-pyrrolo[2,3-d]pyrimidin-4-yl]amino]propan-1-ol

> <PUBCHEM_IUPAC_INCHI>
InChI=1S/C10H14N4OS/c1-16-7-5-12-10-8(7)9(13-6-14-10)11-3-2-4-15/h5-6,15H,2-4H2,1H3,(H2,11,12,13,14)

> <PUBCHEM_IUPAC_INCHIKEY>
MMMPFWNSQKXKDX-UHFFFAOYSA-N

> <PUBCHEM_XLOGP3_AA>
1.7

> <PUBCHEM_EXACT_MASS>
238.08883226

> <PUBCHEM_MOLECULAR_FORMULA>
C10H14N4OS

> <PUBCHEM_MOLECULAR_WEIGHT>
238.31

> <PUBCHEM_SMILES>
CSC1=CNC2=C1C(=NC=N2)NCCCO

> <PUBCHEM_OPENEYE_CAN_SMILES>
CSC1=CNC2=C1C(=NC=N2)NCCCO

> <PUBCHEM_OPENEYE_ISO_SMILES>
CSC1=CNC2=C1C(=NC=N2)NCCCO

> <PUBCHEM_CACTVS_TPSA>
99.1

> <PUBCHEM_MONOISOTOPIC_WEIGHT>
238.08883226

> <PUBCHEM_TOTAL_CHARGE>
0

> <PUBCHEM_HEAVY_ATOM_COUNT>
16

> <PUBCHEM_ATOM_DEF_STEREO_COUNT>
0

> <PUBCHEM_ATOM_UDEF_STEREO_COUNT>
0

> <PUBCHEM_BOND_DEF_STEREO_COUNT>
0

> <PUBCHEM_BOND_UDEF_STEREO_COUNT>
0

> <PUBCHEM_ISOTOPIC_ATOM_COUNT>
0

> <PUBCHEM_COMPONENT_COUNT>
1

> <PUBCHEM_CACTVS_TAUTO_COUNT>
-1

> <PUBCHEM_COORDINATE_TYPE>
1
5
255

> <PUBCHEM_BONDANNOTATIONS>
12  13  8
4  11  8
4  13  8
5  15  8
5  9  8
6  11  8
6  15  8
7  11  8
7  12  8
7  9  8

$$$$
