14929458
  -OEChem-03202507172D

 24 26  0     0  0  0  0  0  0999 V2000
    6.6534   -2.0337    0.0000 F   0  0  0  0  0  0  0  0  0  0  0  0
    8.0654   -2.1132    0.0000 F   0  0  0  0  0  0  0  0  0  0  0  0
    8.1448   -0.7012    0.0000 F   0  0  0  0  0  0  0  0  0  0  0  0
    4.5274    1.4932    0.0000 N   0  0  0  0  0  0  0  0  0  0  0  0
    2.0000    0.3689    0.0000 N   0  0  0  0  0  0  0  0  0  0  0  0
    5.0274   -0.0457    0.0000 C   0  0  0  0  0  0  0  0  0  0  0  0
    5.3364    0.9054    0.0000 C   0  0  0  0  0  0  0  0  0  0  0  0
    4.0274   -0.0457    0.0000 C   0  0  0  0  0  0  0  0  0  0  0  0
    3.7183    0.9054    0.0000 C   0  0  0  0  0  0  0  0  0  0  0  0
    5.7123   -0.8304    0.0000 C   0  0  0  0  0  0  0  0  0  0  0  0
    6.7328   -0.6217    0.0000 C   0  0  0  0  0  0  0  0  0  0  0  0
    6.3518    1.1376    0.0000 C   0  0  0  0  0  0  0  0  0  0  0  0
    7.0547    0.3689    0.0000 C   0  0  0  0  0  0  0  0  0  0  0  0
    3.3424   -0.8304    0.0000 C   0  0  0  0  0  0  0  0  0  0  0  0
    2.7029    1.1376    0.0000 C   0  0  0  0  0  0  0  0  0  0  0  0
    7.3991   -1.3674    0.0000 C   0  0  0  0  0  0  0  0  0  0  0  0
    2.3219   -0.6217    0.0000 C   0  0  0  0  0  0  0  0  0  0  0  0
    4.5274    2.1132    0.0000 H   0  0  0  0  0  0  0  0  0  0  0  0
    5.5139   -1.4178    0.0000 H   0  0  0  0  0  0  0  0  0  0  0  0
    6.5365    1.7294    0.0000 H   0  0  0  0  0  0  0  0  0  0  0  0
    7.6607    0.5002    0.0000 H   0  0  0  0  0  0  0  0  0  0  0  0
    3.5408   -1.4178    0.0000 H   0  0  0  0  0  0  0  0  0  0  0  0
    2.5182    1.7294    0.0000 H   0  0  0  0  0  0  0  0  0  0  0  0
    1.9088   -1.0841    0.0000 H   0  0  0  0  0  0  0  0  0  0  0  0
  1 16  1  0  0  0  0
  2 16  1  0  0  0  0
  3 16  1  0  0  0  0
  4  7  1  0  0  0  0
  4  9  1  0  0  0  0
  4 18  1  0  0  0  0
  5 15  2  0  0  0  0
  5 17  1  0  0  0  0
  6  7  2  0  0  0  0
  6  8  1  0  0  0  0
  6 10  1  0  0  0  0
  7 12  1  0  0  0  0
  8  9  2  0  0  0  0
  8 14  1  0  0  0  0
  9 15  1  0  0  0  0
 10 11  2  0  0  0  0
 10 19  1  0  0  0  0
 11 13  1  0  0  0  0
 11 16  1  0  0  0  0
 12 13  2  0  0  0  0
 12 20  1  0  0  0  0
 13 21  1  0  0  0  0
 14 17  2  0  0  0  0
 14 22  1  0  0  0  0
 15 23  1  0  0  0  0
 17 24  1  0  0  0  0
M  END
> <PUBCHEM_COMPOUND_CID>
14929458

> <PUBCHEM_COMPOUND_CANONICALIZED>
1

> <PUBCHEM_CACTVS_COMPLEXITY>
292

> <PUBCHEM_CACTVS_HBOND_ACCEPTOR>
4

> <PUBCHEM_CACTVS_HBOND_DONOR>
1

> <PUBCHEM_CACTVS_ROTATABLE_BOND>
0

> <PUBCHEM_CACTVS_SUBSKEYS>
AAADcYBzAYAAAAAAAAAAAAAAAAAAAWAAAAA8QAAAAAAAAFgB/gAAHQAQAAAADAjBHhQ8wPLJkACgAzRnRACCgCQxEiAI2SA4dJgIYOLAkZGUIAhgkADIyAcQgMAOiAACAAACAAAQAAQAAAQAAAAAAAAAAA==

> <PUBCHEM_IUPAC_OPENEYE_NAME>
6-(trifluoromethyl)-9H-pyrido[3,4-b]indole

> <PUBCHEM_IUPAC_CAS_NAME>
6-(trifluoromethyl)-9H-pyrido[3,4-b]indole

> <PUBCHEM_IUPAC_NAME_MARKUP>
6-(trifluoromethyl)-9<I>H</I>-pyrido[3,4-b]indole

> <PUBCHEM_IUPAC_NAME>
6-(trifluoromethyl)-9H-pyrido[3,4-b]indole

> <PUBCHEM_IUPAC_SYSTEMATIC_NAME>
6-(trifluoromethyl)-9H-pyrido[3,4-b]indole

> <PUBCHEM_IUPAC_TRADITIONAL_NAME>
6-(trifluoromethyl)-9H-beta-carboline

> <PUBCHEM_IUPAC_INCHI>
InChI=1S/C12H7F3N2/c13-12(14,15)7-1-2-10-9(5-7)8-3-4-16-6-11(8)17-10/h1-6,17H

> <PUBCHEM_IUPAC_INCHIKEY>
DTIBSUIWQIHXOH-UHFFFAOYSA-N

> <PUBCHEM_XLOGP3>
4.1

> <PUBCHEM_EXACT_MASS>
236.05613272

> <PUBCHEM_MOLECULAR_FORMULA>
C12H7F3N2

> <PUBCHEM_MOLECULAR_WEIGHT>
236.19

> <PUBCHEM_SMILES>
C1=CC2=C(C=C1C(F)(F)F)C3=C(N2)C=NC=C3

> <PUBCHEM_OPENEYE_CAN_SMILES>
C1=CC2=C(C=C1C(F)(F)F)C3=C(N2)C=NC=C3

> <PUBCHEM_OPENEYE_ISO_SMILES>
C1=CC2=C(C=C1C(F)(F)F)C3=C(N2)C=NC=C3

> <PUBCHEM_CACTVS_TPSA>
28.7

> <PUBCHEM_MONOISOTOPIC_WEIGHT>
236.05613272

> <PUBCHEM_TOTAL_CHARGE>
0

> <PUBCHEM_HEAVY_ATOM_COUNT>
17

> <PUBCHEM_ATOM_DEF_STEREO_COUNT>
0

> <PUBCHEM_ATOM_UDEF_STEREO_COUNT>
0

> <PUBCHEM_BOND_DEF_STEREO_COUNT>
0

> <PUBCHEM_BOND_UDEF_STEREO_COUNT>
0

> <PUBCHEM_ISOTOPIC_ATOM_COUNT>
0

> <PUBCHEM_COMPONENT_COUNT>
1

> <PUBCHEM_CACTVS_TAUTO_COUNT>
-1

> <PUBCHEM_COORDINATE_TYPE>
1
5
255

> <PUBCHEM_BONDANNOTATIONS>
10  11  8
11  13  8
12  13  8
14  17  8
4  7  8
4  9  8
5  15  8
5  17  8
6  10  8
6  7  8
6  8  8
7  12  8
8  14  8
8  9  8
9  15  8

$$$$
