49830732
  -OEChem-03202503422D

 44 47  0     0  0  0  0  0  0999 V2000
    9.8547    2.6298    0.0000 S   0  0  0  0  0  0  0  0  0  0  0  0
    9.6485    3.6084    0.0000 O   0  0  0  0  0  0  0  0  0  0  0  0
   10.0609    1.6514    0.0000 O   0  0  0  0  0  0  0  0  0  0  0  0
    6.3301   -2.9884    0.0000 O   0  0  0  0  0  0  0  0  0  0  0  0
    6.3301   -0.9884    0.0000 N   0  0  0  0  0  0  0  0  0  0  0  0
    5.4641    0.5116    0.0000 N   0  0  0  0  0  0  0  0  0  0  0  0
    7.2764   -1.2931    0.0000 N   0  0  0  0  0  0  0  0  0  0  0  0
    4.5981   -2.9884    0.0000 N   0  0  0  0  0  0  0  0  0  0  0  0
    7.2764    0.3164    0.0000 C   0  0  0  0  0  0  0  0  0  0  0  0
    6.3301    0.0116    0.0000 C   0  0  0  0  0  0  0  0  0  0  0  0
    7.5870    1.2669    0.0000 C   0  0  0  0  0  0  0  0  0  0  0  0
    5.4641   -1.4884    0.0000 C   0  0  0  0  0  0  0  0  0  0  0  0
    8.8762    2.4236    0.0000 C   0  0  0  0  0  0  0  0  0  0  0  0
    8.5655    1.4731    0.0000 C   0  0  0  0  0  0  0  0  0  0  0  0
    4.5981    0.0116    0.0000 C   0  0  0  0  0  0  0  0  0  0  0  0
    7.8600   -0.4884    0.0000 C   0  0  0  0  0  0  0  0  0  0  0  0
    4.5981   -0.9884    0.0000 C   0  0  0  0  0  0  0  0  0  0  0  0
    6.9192    2.0112    0.0000 C   0  0  0  0  0  0  0  0  0  0  0  0
    8.2083    3.1679    0.0000 C   0  0  0  0  0  0  0  0  0  0  0  0
    3.7320    0.5116    0.0000 C   0  0  0  0  0  0  0  0  0  0  0  0
    7.2298    2.9617    0.0000 C   0  0  0  0  0  0  0  0  0  0  0  0
    5.4641   -2.4884    0.0000 C   0  0  0  0  0  0  0  0  0  0  0  0
   10.8332    2.8361    0.0000 C   0  0  0  0  0  0  0  0  0  0  0  0
    3.7320    1.5116    0.0000 C   0  0  0  0  0  0  0  0  0  0  0  0
    2.8660    0.0116    0.0000 C   0  0  0  0  0  0  0  0  0  0  0  0
    2.8660    2.0116    0.0000 C   0  0  0  0  0  0  0  0  0  0  0  0
    2.0000    0.5116    0.0000 C   0  0  0  0  0  0  0  0  0  0  0  0
    2.0000    1.5116    0.0000 C   0  0  0  0  0  0  0  0  0  0  0  0
    8.9796    1.0116    0.0000 H   0  0  0  0  0  0  0  0  0  0  0  0
    8.4800   -0.4884    0.0000 H   0  0  0  0  0  0  0  0  0  0  0  0
    4.0611   -1.2984    0.0000 H   0  0  0  0  0  0  0  0  0  0  0  0
    6.3125    1.8833    0.0000 H   0  0  0  0  0  0  0  0  0  0  0  0
    8.4009    3.7573    0.0000 H   0  0  0  0  0  0  0  0  0  0  0  0
    6.8158    3.4232    0.0000 H   0  0  0  0  0  0  0  0  0  0  0  0
   10.9610    2.2294    0.0000 H   0  0  0  0  0  0  0  0  0  0  0  0
   11.4399    2.9639    0.0000 H   0  0  0  0  0  0  0  0  0  0  0  0
   10.7053    3.4427    0.0000 H   0  0  0  0  0  0  0  0  0  0  0  0
    4.2690    1.8216    0.0000 H   0  0  0  0  0  0  0  0  0  0  0  0
    2.8660   -0.6084    0.0000 H   0  0  0  0  0  0  0  0  0  0  0  0
    2.8660    2.6316    0.0000 H   0  0  0  0  0  0  0  0  0  0  0  0
    1.4631    0.2016    0.0000 H   0  0  0  0  0  0  0  0  0  0  0  0
    1.4631    1.8216    0.0000 H   0  0  0  0  0  0  0  0  0  0  0  0
    4.5981   -3.6084    0.0000 H   0  0  0  0  0  0  0  0  0  0  0  0
    4.0611   -2.6784    0.0000 H   0  0  0  0  0  0  0  0  0  0  0  0
  1  2  2  0  0  0  0
  1  3  2  0  0  0  0
  1 13  1  0  0  0  0
  1 23  1  0  0  0  0
  4 22  2  0  0  0  0
  5  7  1  0  0  0  0
  5 10  1  0  0  0  0
  5 12  1  0  0  0  0
  6 10  1  0  0  0  0
  6 15  2  0  0  0  0
  7 16  2  0  0  0  0
  8 22  1  0  0  0  0
  8 43  1  0  0  0  0
  8 44  1  0  0  0  0
  9 10  2  0  0  0  0
  9 11  1  0  0  0  0
  9 16  1  0  0  0  0
 11 14  2  0  0  0  0
 11 18  1  0  0  0  0
 12 17  2  0  0  0  0
 12 22  1  0  0  0  0
 13 14  1  0  0  0  0
 13 19  2  0  0  0  0
 14 29  1  0  0  0  0
 15 17  1  0  0  0  0
 15 20  1  0  0  0  0
 16 30  1  0  0  0  0
 17 31  1  0  0  0  0
 18 21  2  0  0  0  0
 18 32  1  0  0  0  0
 19 21  1  0  0  0  0
 19 33  1  0  0  0  0
 20 24  2  0  0  0  0
 20 25  1  0  0  0  0
 21 34  1  0  0  0  0
 23 35  1  0  0  0  0
 23 36  1  0  0  0  0
 23 37  1  0  0  0  0
 24 26  1  0  0  0  0
 24 38  1  0  0  0  0
 25 27  2  0  0  0  0
 25 39  1  0  0  0  0
 26 28  2  0  0  0  0
 26 40  1  0  0  0  0
 27 28  1  0  0  0  0
 27 41  1  0  0  0  0
 28 42  1  0  0  0  0
M  END
> <PUBCHEM_COMPOUND_CID>
49830732

> <PUBCHEM_COMPOUND_CANONICALIZED>
1

> <PUBCHEM_CACTVS_COMPLEXITY>
673

> <PUBCHEM_CACTVS_HBOND_ACCEPTOR>
5

> <PUBCHEM_CACTVS_HBOND_DONOR>
1

> <PUBCHEM_CACTVS_ROTATABLE_BOND>
4

> <PUBCHEM_CACTVS_SUBSKEYS>
AAADceB7sABAAAAAAAAAAAAAAAAAAWAAAAA8YIAAAAAAAFgB9AAAHgQYAAAADAjB3wS/sZ5IEAqqAzd3dHDShCsnirAdmDmwZNiIaPLg3fGUpQhoiALIyacciMCOgAAAgAAAAAAAAAEAAAAAAAAAAAAAAA==

> <PUBCHEM_IUPAC_OPENEYE_NAME>
3-(3-methylsulfonylphenyl)-5-phenyl-pyrazolo[1,5-a]pyrimidine-7-carboxamide

> <PUBCHEM_IUPAC_CAS_NAME>
3-(3-methylsulfonylphenyl)-5-phenyl-7-pyrazolo[1,5-a]pyrimidinecarboxamide

> <PUBCHEM_IUPAC_NAME_MARKUP>
3-(3-methylsulfonylphenyl)-5-phenylpyrazolo[1,5-a]pyrimidine-7-carboxamide

> <PUBCHEM_IUPAC_NAME>
3-(3-methylsulfonylphenyl)-5-phenylpyrazolo[1,5-a]pyrimidine-7-carboxamide

> <PUBCHEM_IUPAC_SYSTEMATIC_NAME>
3-(3-methylsulfonylphenyl)-5-phenyl-pyrazolo[1,5-a]pyrimidine-7-carboxamide

> <PUBCHEM_IUPAC_TRADITIONAL_NAME>
3-(3-mesylphenyl)-5-phenyl-pyrazolo[1,5-a]pyrimidine-7-carboxamide

> <PUBCHEM_IUPAC_INCHI>
InChI=1S/C20H16N4O3S/c1-28(26,27)15-9-5-8-14(10-15)16-12-22-24-18(19(21)25)11-17(23-20(16)24)13-6-3-2-4-7-13/h2-12H,1H3,(H2,21,25)

> <PUBCHEM_IUPAC_INCHIKEY>
NJHUNGSSNYHTPU-UHFFFAOYSA-N

> <PUBCHEM_XLOGP3_AA>
2.1

> <PUBCHEM_EXACT_MASS>
392.09431156

> <PUBCHEM_MOLECULAR_FORMULA>
C20H16N4O3S

> <PUBCHEM_MOLECULAR_WEIGHT>
392.4

> <PUBCHEM_SMILES>
CS(=O)(=O)C1=CC=CC(=C1)C2=C3N=C(C=C(N3N=C2)C(=O)N)C4=CC=CC=C4

> <PUBCHEM_OPENEYE_CAN_SMILES>
CS(=O)(=O)C1=CC=CC(=C1)C2=C3N=C(C=C(N3N=C2)C(=O)N)C4=CC=CC=C4

> <PUBCHEM_OPENEYE_ISO_SMILES>
CS(=O)(=O)C1=CC=CC(=C1)C2=C3N=C(C=C(N3N=C2)C(=O)N)C4=CC=CC=C4

> <PUBCHEM_CACTVS_TPSA>
116

> <PUBCHEM_MONOISOTOPIC_WEIGHT>
392.09431156

> <PUBCHEM_TOTAL_CHARGE>
0

> <PUBCHEM_HEAVY_ATOM_COUNT>
28

> <PUBCHEM_ATOM_DEF_STEREO_COUNT>
0

> <PUBCHEM_ATOM_UDEF_STEREO_COUNT>
0

> <PUBCHEM_BOND_DEF_STEREO_COUNT>
0

> <PUBCHEM_BOND_UDEF_STEREO_COUNT>
0

> <PUBCHEM_ISOTOPIC_ATOM_COUNT>
0

> <PUBCHEM_COMPONENT_COUNT>
1

> <PUBCHEM_CACTVS_TAUTO_COUNT>
-1

> <PUBCHEM_COORDINATE_TYPE>
1
5
255

> <PUBCHEM_BONDANNOTATIONS>
11  14  8
11  18  8
12  17  8
13  14  8
13  19  8
15  17  8
18  21  8
19  21  8
20  24  8
20  25  8
24  26  8
25  27  8
26  28  8
27  28  8
5  10  8
5  12  8
5  7  8
6  10  8
6  15  8
7  16  8
9  10  8
9  16  8

$$$$
