49830411
  -OEChem-03202502522D

 59 64  0     0  0  0  0  0  0999 V2000
   10.4851   -1.6297    0.0000 S   0  0  0  0  0  0  0  0  0  0  0  0
    3.5000   -1.6910    0.0000 O   0  0  0  0  0  0  0  0  0  0  0  0
    9.5388   -0.3250    0.0000 N   0  0  0  0  0  0  0  0  0  0  0  0
    8.5878   -1.6340    0.0000 N   0  0  0  0  0  0  0  0  0  0  0  0
    7.3006    1.1430    0.0000 N   0  0  0  0  0  0  0  0  0  0  0  0
    5.0000   -2.5570    0.0000 N   0  0  0  0  0  0  0  0  0  0  0  0
    6.0135    2.3020    0.0000 N   0  0  0  0  0  0  0  0  0  0  0  0
    7.6607    2.8372    0.0000 N   0  0  0  0  0  0  0  0  0  0  0  0
    8.5878   -0.0160    0.0000 C   0  0  0  0  0  0  0  0  0  0  0  0
    8.0000   -0.8250    0.0000 C   0  0  0  0  0  0  0  0  0  0  0  0
    7.0000   -0.8250    0.0000 C   0  0  0  0  0  0  0  0  0  0  0  0
    9.5388   -1.3250    0.0000 C   0  0  0  0  0  0  0  0  0  0  0  0
    8.2788    0.9351    0.0000 C   0  0  0  0  0  0  0  0  0  0  0  0
   10.4851   -0.0203    0.0000 C   0  0  0  0  0  0  0  0  0  0  0  0
    6.5000   -1.6910    0.0000 C   0  0  0  0  0  0  0  0  0  0  0  0
    6.5000    0.0410    0.0000 C   0  0  0  0  0  0  0  0  0  0  0  0
    5.5000   -1.6910    0.0000 C   0  0  0  0  0  0  0  0  0  0  0  0
   11.0687   -0.8250    0.0000 C   0  0  0  0  0  0  0  0  0  0  0  0
    8.9479    1.6782    0.0000 C   0  0  0  0  0  0  0  0  0  0  0  0
    5.5000    0.0410    0.0000 C   0  0  0  0  0  0  0  0  0  0  0  0
    5.0000   -0.8250    0.0000 C   0  0  0  0  0  0  0  0  0  0  0  0
    6.9916    2.0940    0.0000 C   0  0  0  0  0  0  0  0  0  0  0  0
    5.7044    3.2530    0.0000 C   0  0  0  0  0  0  0  0  0  0  0  0
    8.6389    2.6293    0.0000 C   0  0  0  0  0  0  0  0  0  0  0  0
    6.3736    3.9962    0.0000 C   0  0  0  0  0  0  0  0  0  0  0  0
    4.0000   -2.5570    0.0000 C   0  0  0  0  0  0  0  0  0  0  0  0
    4.7263    3.4609    0.0000 C   0  0  0  0  0  0  0  0  0  0  0  0
    6.0646    4.9472    0.0000 C   0  0  0  0  0  0  0  0  0  0  0  0
    3.5000   -3.4231    0.0000 C   0  0  0  0  0  0  0  0  0  0  0  0
    7.3517    3.7882    0.0000 C   0  0  0  0  0  0  0  0  0  0  0  0
    4.4173    4.4120    0.0000 C   0  0  0  0  0  0  0  0  0  0  0  0
    5.0864    5.1551    0.0000 C   0  0  0  0  0  0  0  0  0  0  0  0
    2.5000   -3.4231    0.0000 C   0  0  0  0  0  0  0  0  0  0  0  0
    4.0000   -4.2891    0.0000 C   0  0  0  0  0  0  0  0  0  0  0  0
    2.0000   -4.2891    0.0000 C   0  0  0  0  0  0  0  0  0  0  0  0
    3.5000   -5.1551    0.0000 C   0  0  0  0  0  0  0  0  0  0  0  0
    2.5000   -5.1551    0.0000 C   0  0  0  0  0  0  0  0  0  0  0  0
   10.6777    0.5691    0.0000 H   0  0  0  0  0  0  0  0  0  0  0  0
    6.8100   -2.2280    0.0000 H   0  0  0  0  0  0  0  0  0  0  0  0
    6.8100    0.5780    0.0000 H   0  0  0  0  0  0  0  0  0  0  0  0
   11.6887   -0.8250    0.0000 H   0  0  0  0  0  0  0  0  0  0  0  0
    9.5544    1.5493    0.0000 H   0  0  0  0  0  0  0  0  0  0  0  0
    5.1900    0.5780    0.0000 H   0  0  0  0  0  0  0  0  0  0  0  0
    4.3800   -0.8250    0.0000 H   0  0  0  0  0  0  0  0  0  0  0  0
    5.3100   -3.0940    0.0000 H   0  0  0  0  0  0  0  0  0  0  0  0
    9.0537    3.0900    0.0000 H   0  0  0  0  0  0  0  0  0  0  0  0
    5.5986    1.8412    0.0000 H   0  0  0  0  0  0  0  0  0  0  0  0
    4.3114    3.0002    0.0000 H   0  0  0  0  0  0  0  0  0  0  0  0
    6.4794    5.4080    0.0000 H   0  0  0  0  0  0  0  0  0  0  0  0
    7.2228    3.1818    0.0000 H   0  0  0  0  0  0  0  0  0  0  0  0
    7.9582    3.6593    0.0000 H   0  0  0  0  0  0  0  0  0  0  0  0
    7.4806    4.3947    0.0000 H   0  0  0  0  0  0  0  0  0  0  0  0
    3.8108    4.5409    0.0000 H   0  0  0  0  0  0  0  0  0  0  0  0
    4.8948    5.7448    0.0000 H   0  0  0  0  0  0  0  0  0  0  0  0
    2.1900   -2.8861    0.0000 H   0  0  0  0  0  0  0  0  0  0  0  0
    4.6200   -4.2891    0.0000 H   0  0  0  0  0  0  0  0  0  0  0  0
    1.3800   -4.2891    0.0000 H   0  0  0  0  0  0  0  0  0  0  0  0
    3.8100   -5.6921    0.0000 H   0  0  0  0  0  0  0  0  0  0  0  0
    2.1900   -5.6921    0.0000 H   0  0  0  0  0  0  0  0  0  0  0  0
  1 12  1  0  0  0  0
  1 18  1  0  0  0  0
  2 26  2  0  0  0  0
  3  9  1  0  0  0  0
  3 12  1  0  0  0  0
  3 14  1  0  0  0  0
  4 10  1  0  0  0  0
  4 12  2  0  0  0  0
  5 13  2  0  0  0  0
  5 22  1  0  0  0  0
  6 17  1  0  0  0  0
  6 26  1  0  0  0  0
  6 45  1  0  0  0  0
  7 22  1  0  0  0  0
  7 23  1  0  0  0  0
  7 47  1  0  0  0  0
  8 22  2  0  0  0  0
  8 24  1  0  0  0  0
  9 10  2  0  0  0  0
  9 13  1  0  0  0  0
 10 11  1  0  0  0  0
 11 15  2  0  0  0  0
 11 16  1  0  0  0  0
 13 19  1  0  0  0  0
 14 18  2  0  0  0  0
 14 38  1  0  0  0  0
 15 17  1  0  0  0  0
 15 39  1  0  0  0  0
 16 20  2  0  0  0  0
 16 40  1  0  0  0  0
 17 21  2  0  0  0  0
 18 41  1  0  0  0  0
 19 24  2  0  0  0  0
 19 42  1  0  0  0  0
 20 21  1  0  0  0  0
 20 43  1  0  0  0  0
 21 44  1  0  0  0  0
 23 25  1  0  0  0  0
 23 27  2  0  0  0  0
 24 46  1  0  0  0  0
 25 28  2  0  0  0  0
 25 30  1  0  0  0  0
 26 29  1  0  0  0  0
 27 31  1  0  0  0  0
 27 48  1  0  0  0  0
 28 32  1  0  0  0  0
 28 49  1  0  0  0  0
 29 33  2  0  0  0  0
 29 34  1  0  0  0  0
 30 50  1  0  0  0  0
 30 51  1  0  0  0  0
 30 52  1  0  0  0  0
 31 32  2  0  0  0  0
 31 53  1  0  0  0  0
 32 54  1  0  0  0  0
 33 35  1  0  0  0  0
 33 55  1  0  0  0  0
 34 36  2  0  0  0  0
 34 56  1  0  0  0  0
 35 37  2  0  0  0  0
 35 57  1  0  0  0  0
 36 37  1  0  0  0  0
 36 58  1  0  0  0  0
 37 59  1  0  0  0  0
M  END
> <PUBCHEM_COMPOUND_CID>
49830411

> <PUBCHEM_COMPOUND_CANONICALIZED>
1

> <PUBCHEM_CACTVS_COMPLEXITY>
765

> <PUBCHEM_CACTVS_HBOND_ACCEPTOR>
6

> <PUBCHEM_CACTVS_HBOND_DONOR>
2

> <PUBCHEM_CACTVS_ROTATABLE_BOND>
6

> <PUBCHEM_CACTVS_SUBSKEYS>
AAADceB7oABAAAAAAAAAAAAAAAAAAWLAAAA8YMEAAAAWAAAB/AAAHgQQAAAADAjF3gS/0ZfMGAisAzV3dACC8K11GrhJ2C04dNiIaPLA3dGUJQholALIyacYiMCOAAAAQAACAAAAAACAAAQAAAAAAAAAAA==

> <PUBCHEM_IUPAC_OPENEYE_NAME>
N-[3-[5-[2-(2-methylanilino)pyrimidin-4-yl]imidazo[2,1-b]thiazol-6-yl]phenyl]benzamide

> <PUBCHEM_IUPAC_CAS_NAME>
N-[3-[5-[2-(2-methylanilino)-4-pyrimidinyl]-6-imidazo[2,1-b]thiazolyl]phenyl]benzamide

> <PUBCHEM_IUPAC_NAME_MARKUP>
<I>N</I>-[3-[5-[2-(2-methylanilino)pyrimidin-4-yl]imidazo[2,1-b][1,3]thiazol-6-yl]phenyl]benzamide

> <PUBCHEM_IUPAC_NAME>
N-[3-[5-[2-(2-methylanilino)pyrimidin-4-yl]imidazo[2,1-b][1,3]thiazol-6-yl]phenyl]benzamide

> <PUBCHEM_IUPAC_SYSTEMATIC_NAME>
N-[3-[5-[2-[(2-methylphenyl)amino]pyrimidin-4-yl]imidazo[2,1-b][1,3]thiazol-6-yl]phenyl]benzamide

> <PUBCHEM_IUPAC_TRADITIONAL_NAME>
N-[3-[5-[2-(o-toluidino)pyrimidin-4-yl]imidazo[2,1-b]thiazol-6-yl]phenyl]benzamide

> <PUBCHEM_IUPAC_INCHI>
InChI=1S/C29H22N6OS/c1-19-8-5-6-13-23(19)32-28-30-15-14-24(33-28)26-25(34-29-35(26)16-17-37-29)21-11-7-12-22(18-21)31-27(36)20-9-3-2-4-10-20/h2-18H,1H3,(H,31,36)(H,30,32,33)

> <PUBCHEM_IUPAC_INCHIKEY>
KEZAHTDTAWUZDU-UHFFFAOYSA-N

> <PUBCHEM_XLOGP3_AA>
6.6

> <PUBCHEM_EXACT_MASS>
502.15758052

> <PUBCHEM_MOLECULAR_FORMULA>
C29H22N6OS

> <PUBCHEM_MOLECULAR_WEIGHT>
502.6

> <PUBCHEM_SMILES>
CC1=CC=CC=C1NC2=NC=CC(=N2)C3=C(N=C4N3C=CS4)C5=CC(=CC=C5)NC(=O)C6=CC=CC=C6

> <PUBCHEM_OPENEYE_CAN_SMILES>
CC1=CC=CC=C1NC2=NC=CC(=N2)C3=C(N=C4N3C=CS4)C5=CC(=CC=C5)NC(=O)C6=CC=CC=C6

> <PUBCHEM_OPENEYE_ISO_SMILES>
CC1=CC=CC=C1NC2=NC=CC(=N2)C3=C(N=C4N3C=CS4)C5=CC(=CC=C5)NC(=O)C6=CC=CC=C6

> <PUBCHEM_CACTVS_TPSA>
112

> <PUBCHEM_MONOISOTOPIC_WEIGHT>
502.15758052

> <PUBCHEM_TOTAL_CHARGE>
0

> <PUBCHEM_HEAVY_ATOM_COUNT>
37

> <PUBCHEM_ATOM_DEF_STEREO_COUNT>
0

> <PUBCHEM_ATOM_UDEF_STEREO_COUNT>
0

> <PUBCHEM_BOND_DEF_STEREO_COUNT>
0

> <PUBCHEM_BOND_UDEF_STEREO_COUNT>
0

> <PUBCHEM_ISOTOPIC_ATOM_COUNT>
0

> <PUBCHEM_COMPONENT_COUNT>
1

> <PUBCHEM_CACTVS_TAUTO_COUNT>
-1

> <PUBCHEM_COORDINATE_TYPE>
1
5
255

> <PUBCHEM_BONDANNOTATIONS>
1  12  8
1  18  8
11  15  8
11  16  8
13  19  8
14  18  8
15  17  8
16  20  8
17  21  8
19  24  8
20  21  8
23  25  8
23  27  8
25  28  8
27  31  8
28  32  8
29  33  8
29  34  8
3  12  8
3  14  8
3  9  8
31  32  8
33  35  8
34  36  8
35  37  8
36  37  8
4  10  8
4  12  8
5  13  8
5  22  8
8  22  8
8  24  8
9  10  8

$$$$
