16095343
  -OEChem-03202500432D

 43 46  0     1  0  0  0  0  0999 V2000
    5.8381    1.0516    0.0000 O   0  0  0  0  0  0  0  0  0  0  0  0
    9.9067   -0.9484    0.0000 O   0  0  0  0  0  0  0  0  0  0  0  0
    4.1060    1.0516    0.0000 N   0  0  0  0  0  0  0  0  0  0  0  0
    2.6166    3.1676    0.0000 N   0  0  0  0  0  0  0  0  0  0  0  0
    6.7843   -0.6436    0.0000 N   0  0  0  0  0  0  0  0  0  0  0  0
    6.7843   -2.2531    0.0000 N   0  0  0  0  0  0  0  0  0  0  0  0
    4.1060   -1.9484    0.0000 N   0  0  0  0  0  0  0  0  0  0  0  0
    8.9557   -0.6394    0.0000 N   0  0  0  0  0  0  0  0  0  0  0  0
    9.9067   -1.9484    0.0000 N   0  0  0  0  0  0  0  0  0  0  0  0
    8.6467   -3.2084    0.0000 N   0  0  0  0  0  0  0  0  0  0  0  0
    3.0233    2.2541    0.0000 C   0  0  1  0  0  0  0  0  0  0  0  0
    2.5233    1.3880    0.0000 C   0  0  0  0  0  0  0  0  0  0  0  0
    4.0015    2.0462    0.0000 C   0  0  0  0  0  0  0  0  0  0  0  0
    3.1925    0.6449    0.0000 C   0  0  0  0  0  0  0  0  0  0  0  0
    4.9720    0.5516    0.0000 C   0  0  0  0  0  0  0  0  0  0  0  0
    4.9720   -0.4484    0.0000 C   0  0  0  0  0  0  0  0  0  0  0  0
    5.8381   -0.9484    0.0000 C   0  0  0  0  0  0  0  0  0  0  0  0
    5.8381   -1.9484    0.0000 C   0  0  0  0  0  0  0  0  0  0  0  0
    7.3679   -1.4484    0.0000 C   0  0  0  0  0  0  0  0  0  0  0  0
    7.0950    0.3069    0.0000 C   0  0  0  0  0  0  0  0  0  0  0  0
    4.1060   -0.9484    0.0000 C   0  0  0  0  0  0  0  0  0  0  0  0
    4.9720   -2.4484    0.0000 C   0  0  0  0  0  0  0  0  0  0  0  0
    8.3679   -1.4484    0.0000 C   0  0  0  0  0  0  0  0  0  0  0  0
    8.0734    0.5131    0.0000 C   0  0  0  0  0  0  0  0  0  0  0  0
    8.9557   -2.2574    0.0000 C   0  0  0  0  0  0  0  0  0  0  0  0
    3.4135    2.7359    0.0000 H   0  0  0  0  0  0  0  0  0  0  0  0
    2.0218    1.7525    0.0000 H   0  0  0  0  0  0  0  0  0  0  0  0
    2.1085    0.9273    0.0000 H   0  0  0  0  0  0  0  0  0  0  0  0
    4.6215    2.0462    0.0000 H   0  0  0  0  0  0  0  0  0  0  0  0
    4.0663    2.6628    0.0000 H   0  0  0  0  0  0  0  0  0  0  0  0
    2.6909    0.2805    0.0000 H   0  0  0  0  0  0  0  0  0  0  0  0
    3.5025    0.1080    0.0000 H   0  0  0  0  0  0  0  0  0  0  0  0
    2.0000    3.2324    0.0000 H   0  0  0  0  0  0  0  0  0  0  0  0
    2.9810    3.6692    0.0000 H   0  0  0  0  0  0  0  0  0  0  0  0
    7.0744    0.9265    0.0000 H   0  0  0  0  0  0  0  0  0  0  0  0
    6.4811    0.3942    0.0000 H   0  0  0  0  0  0  0  0  0  0  0  0
    3.5691   -0.6384    0.0000 H   0  0  0  0  0  0  0  0  0  0  0  0
    4.9720   -3.0684    0.0000 H   0  0  0  0  0  0  0  0  0  0  0  0
    8.2013   -0.0936    0.0000 H   0  0  0  0  0  0  0  0  0  0  0  0
    8.6801    0.6410    0.0000 H   0  0  0  0  0  0  0  0  0  0  0  0
    7.9456    1.1198    0.0000 H   0  0  0  0  0  0  0  0  0  0  0  0
    9.0615   -3.6692    0.0000 H   0  0  0  0  0  0  0  0  0  0  0  0
    8.0402   -3.3374    0.0000 H   0  0  0  0  0  0  0  0  0  0  0  0
  1 15  2  0  0  0  0
  2  8  1  0  0  0  0
  2  9  1  0  0  0  0
  3 13  1  0  0  0  0
  3 14  1  0  0  0  0
  3 15  1  0  0  0  0
 11  4  1  6  0  0  0
  4 33  1  0  0  0  0
  4 34  1  0  0  0  0
  5 17  1  0  0  0  0
  5 19  1  0  0  0  0
  5 20  1  0  0  0  0
  6 18  1  0  0  0  0
  6 19  2  0  0  0  0
  7 21  1  0  0  0  0
  7 22  2  0  0  0  0
  8 23  2  0  0  0  0
  9 25  2  0  0  0  0
 10 25  1  0  0  0  0
 10 42  1  0  0  0  0
 10 43  1  0  0  0  0
 11 12  1  0  0  0  0
 11 13  1  0  0  0  0
 11 26  1  0  0  0  0
 12 14  1  0  0  0  0
 12 27  1  0  0  0  0
 12 28  1  0  0  0  0
 13 29  1  0  0  0  0
 13 30  1  0  0  0  0
 14 31  1  0  0  0  0
 14 32  1  0  0  0  0
 15 16  1  0  0  0  0
 16 17  1  0  0  0  0
 16 21  2  0  0  0  0
 17 18  2  0  0  0  0
 18 22  1  0  0  0  0
 19 23  1  0  0  0  0
 20 24  1  0  0  0  0
 20 35  1  0  0  0  0
 20 36  1  0  0  0  0
 21 37  1  0  0  0  0
 22 38  1  0  0  0  0
 23 25  1  0  0  0  0
 24 39  1  0  0  0  0
 24 40  1  0  0  0  0
 24 41  1  0  0  0  0
M  END
> <PUBCHEM_COMPOUND_CID>
16095343

> <PUBCHEM_COMPOUND_CANONICALIZED>
1

> <PUBCHEM_CACTVS_COMPLEXITY>
508

> <PUBCHEM_CACTVS_HBOND_ACCEPTOR>
8

> <PUBCHEM_CACTVS_HBOND_DONOR>
2

> <PUBCHEM_CACTVS_ROTATABLE_BOND>
3

> <PUBCHEM_CACTVS_SUBSKEYS>
AAADceBz8AAAAAAAAAAAAAAAAAAAAWLFgAAsAAAAAAAAAFgB/gAAHgAUAAAADCjBnwQv8LdcEACpAxd3dgCCgC01EqAh2KE4dNqIaPrA3NGUJYholoLIyeYcAQAMAAAAAAAAAAAAAAAAAAAAAAAAAAAAAA==

> <PUBCHEM_IUPAC_OPENEYE_NAME>
[2-(4-amino-1,2,5-oxadiazol-3-yl)-1-ethyl-imidazo[4,5-c]pyridin-7-yl]-[(3S)-3-aminopyrrolidin-1-yl]methanone

> <PUBCHEM_IUPAC_CAS_NAME>
[2-(4-amino-1,2,5-oxadiazol-3-yl)-1-ethyl-7-imidazo[4,5-c]pyridinyl]-[(3S)-3-amino-1-pyrrolidinyl]methanone

> <PUBCHEM_IUPAC_NAME_MARKUP>
[2-(4-amino-1,2,5-oxadiazol-3-yl)-1-ethylimidazo[4,5-c]pyridin-7-yl]-[(3<I>S</I>)-3-aminopyrrolidin-1-yl]methanone

> <PUBCHEM_IUPAC_NAME>
[2-(4-amino-1,2,5-oxadiazol-3-yl)-1-ethylimidazo[4,5-c]pyridin-7-yl]-[(3S)-3-aminopyrrolidin-1-yl]methanone

> <PUBCHEM_IUPAC_SYSTEMATIC_NAME>
[2-(4-azanyl-1,2,5-oxadiazol-3-yl)-1-ethyl-imidazo[4,5-c]pyridin-7-yl]-[(3S)-3-azanylpyrrolidin-1-yl]methanone

> <PUBCHEM_IUPAC_TRADITIONAL_NAME>
[2-(4-aminofurazan-3-yl)-1-ethyl-imidazo[4,5-c]pyridin-7-yl]-[(3S)-3-aminopyrrolidino]methanone

> <PUBCHEM_IUPAC_INCHI>
InChI=1S/C15H18N8O2/c1-2-23-12-9(15(24)22-4-3-8(16)7-22)5-18-6-10(12)19-14(23)11-13(17)21-25-20-11/h5-6,8H,2-4,7,16H2,1H3,(H2,17,21)/t8-/m0/s1

> <PUBCHEM_IUPAC_INCHIKEY>
PHWHNHYZZNJPLB-QMMMGPOBSA-N

> <PUBCHEM_XLOGP3_AA>
-1.4

> <PUBCHEM_EXACT_MASS>
342.15527185

> <PUBCHEM_MOLECULAR_FORMULA>
C15H18N8O2

> <PUBCHEM_MOLECULAR_WEIGHT>
342.36

> <PUBCHEM_SMILES>
CCN1C2=C(C=NC=C2C(=O)N3CC[C@@H](C3)N)N=C1C4=NON=C4N

> <PUBCHEM_OPENEYE_CAN_SMILES>
CCN1C2=C(C=NC=C2C(=O)N3CCC(C3)N)N=C1C4=NON=C4N

> <PUBCHEM_OPENEYE_ISO_SMILES>
CCN1C2=C(C=NC=C2C(=O)N3CC[C@@H](C3)N)N=C1C4=NON=C4N

> <PUBCHEM_CACTVS_TPSA>
142

> <PUBCHEM_MONOISOTOPIC_WEIGHT>
342.15527185

> <PUBCHEM_TOTAL_CHARGE>
0

> <PUBCHEM_HEAVY_ATOM_COUNT>
25

> <PUBCHEM_ATOM_DEF_STEREO_COUNT>
1

> <PUBCHEM_ATOM_UDEF_STEREO_COUNT>
0

> <PUBCHEM_BOND_DEF_STEREO_COUNT>
0

> <PUBCHEM_BOND_UDEF_STEREO_COUNT>
0

> <PUBCHEM_ISOTOPIC_ATOM_COUNT>
0

> <PUBCHEM_COMPONENT_COUNT>
1

> <PUBCHEM_CACTVS_TAUTO_COUNT>
-1

> <PUBCHEM_COORDINATE_TYPE>
1
5
255

> <PUBCHEM_BONDANNOTATIONS>
16  17  8
16  21  8
17  18  8
18  22  8
2  8  8
2  9  8
23  25  8
11  4  6
5  17  8
5  19  8
6  18  8
6  19  8
7  21  8
7  22  8
8  23  8
9  25  8

$$$$
