49830998
  -OEChem-03202501442D

 43 46  0     0  0  0  0  0  0999 V2000
   10.4708    2.8543    0.0000 O   0  0  0  0  0  0  0  0  0  0  0  0
   11.8262    1.3836    0.0000 O   0  0  0  0  0  0  0  0  0  0  0  0
    4.5274   -1.2661    0.0000 N   0  0  0  0  0  0  0  0  0  0  0  0
    5.7123   -3.5896    0.0000 N   0  0  0  0  0  0  0  0  0  0  0  0
    6.6498   -0.6670    0.0000 N   0  0  0  0  0  0  0  0  0  0  0  0
    7.0547   -2.3903    0.0000 N   0  0  0  0  0  0  0  0  0  0  0  0
    7.6255   -0.4478    0.0000 N   0  0  0  0  0  0  0  0  0  0  0  0
    4.0274   -2.8049    0.0000 C   0  0  0  0  0  0  0  0  0  0  0  0
    3.7183   -1.8538    0.0000 C   0  0  0  0  0  0  0  0  0  0  0  0
    5.3364   -1.8538    0.0000 C   0  0  0  0  0  0  0  0  0  0  0  0
    5.0274   -2.8049    0.0000 C   0  0  0  0  0  0  0  0  0  0  0  0
    6.3518   -1.6216    0.0000 C   0  0  0  0  0  0  0  0  0  0  0  0
    3.3424   -3.5896    0.0000 C   0  0  0  0  0  0  0  0  0  0  0  0
    2.7029   -1.6216    0.0000 C   0  0  0  0  0  0  0  0  0  0  0  0
    2.3219   -3.3809    0.0000 C   0  0  0  0  0  0  0  0  0  0  0  0
    2.0000   -2.3903    0.0000 C   0  0  0  0  0  0  0  0  0  0  0  0
    6.7328   -3.3809    0.0000 C   0  0  0  0  0  0  0  0  0  0  0  0
    8.8991    0.7259    0.0000 C   0  0  0  0  0  0  0  0  0  0  0  0
    9.1971    1.6805    0.0000 C   0  0  0  0  0  0  0  0  0  0  0  0
   10.1728    1.8997    0.0000 C   0  0  0  0  0  0  0  0  0  0  0  0
    7.9235    0.5067    0.0000 C   0  0  0  0  0  0  0  0  0  0  0  0
   10.8505    1.1644    0.0000 C   0  0  0  0  0  0  0  0  0  0  0  0
    9.5768   -0.0094    0.0000 C   0  0  0  0  0  0  0  0  0  0  0  0
   10.5525    0.2098    0.0000 C   0  0  0  0  0  0  0  0  0  0  0  0
    9.7931    3.5896    0.0000 C   0  0  0  0  0  0  0  0  0  0  0  0
   12.5039    0.6482    0.0000 C   0  0  0  0  0  0  0  0  0  0  0  0
    4.5274   -0.6461    0.0000 H   0  0  0  0  0  0  0  0  0  0  0  0
    3.5408   -4.1771    0.0000 H   0  0  0  0  0  0  0  0  0  0  0  0
    2.5182   -1.0298    0.0000 H   0  0  0  0  0  0  0  0  0  0  0  0
    1.9088   -3.8433    0.0000 H   0  0  0  0  0  0  0  0  0  0  0  0
    1.3940   -2.2590    0.0000 H   0  0  0  0  0  0  0  0  0  0  0  0
    6.2296   -0.2111    0.0000 H   0  0  0  0  0  0  0  0  0  0  0  0
    7.1459   -3.8433    0.0000 H   0  0  0  0  0  0  0  0  0  0  0  0
    8.7770    2.1364    0.0000 H   0  0  0  0  0  0  0  0  0  0  0  0
    7.5033    0.9627    0.0000 H   0  0  0  0  0  0  0  0  0  0  0  0
    9.3921   -0.6012    0.0000 H   0  0  0  0  0  0  0  0  0  0  0  0
   10.9727   -0.2461    0.0000 H   0  0  0  0  0  0  0  0  0  0  0  0
   10.2491    4.0098    0.0000 H   0  0  0  0  0  0  0  0  0  0  0  0
    9.3730    4.0456    0.0000 H   0  0  0  0  0  0  0  0  0  0  0  0
    9.3372    3.1695    0.0000 H   0  0  0  0  0  0  0  0  0  0  0  0
   12.0479    0.2281    0.0000 H   0  0  0  0  0  0  0  0  0  0  0  0
   12.9240    0.1923    0.0000 H   0  0  0  0  0  0  0  0  0  0  0  0
   12.9598    1.0684    0.0000 H   0  0  0  0  0  0  0  0  0  0  0  0
  1 20  1  0  0  0  0
  1 25  1  0  0  0  0
  2 22  1  0  0  0  0
  2 26  1  0  0  0  0
  3  9  1  0  0  0  0
  3 10  1  0  0  0  0
  3 27  1  0  0  0  0
  4 11  1  0  0  0  0
  4 17  2  0  0  0  0
  5  7  1  0  0  0  0
  5 12  1  0  0  0  0
  5 32  1  0  0  0  0
  6 12  2  0  0  0  0
  6 17  1  0  0  0  0
  7 21  2  3  0  0  0
  8  9  1  0  0  0  0
  8 11  1  0  0  0  0
  8 13  2  0  0  0  0
  9 14  2  0  0  0  0
 10 11  2  0  0  0  0
 10 12  1  0  0  0  0
 13 15  1  0  0  0  0
 13 28  1  0  0  0  0
 14 16  1  0  0  0  0
 14 29  1  0  0  0  0
 15 16  2  0  0  0  0
 15 30  1  0  0  0  0
 16 31  1  0  0  0  0
 17 33  1  0  0  0  0
 18 19  2  0  0  0  0
 18 21  1  0  0  0  0
 18 23  1  0  0  0  0
 19 20  1  0  0  0  0
 19 34  1  0  0  0  0
 20 22  2  0  0  0  0
 21 35  1  0  0  0  0
 22 24  1  0  0  0  0
 23 24  2  0  0  0  0
 23 36  1  0  0  0  0
 24 37  1  0  0  0  0
 25 38  1  0  0  0  0
 25 39  1  0  0  0  0
 25 40  1  0  0  0  0
 26 41  1  0  0  0  0
 26 42  1  0  0  0  0
 26 43  1  0  0  0  0
M  END
> <PUBCHEM_COMPOUND_CID>
49830998

> <PUBCHEM_COMPOUND_CANONICALIZED>
1

> <PUBCHEM_CACTVS_COMPLEXITY>
491

> <PUBCHEM_CACTVS_HBOND_ACCEPTOR>
6

> <PUBCHEM_CACTVS_HBOND_DONOR>
2

> <PUBCHEM_CACTVS_ROTATABLE_BOND>
5

> <PUBCHEM_CACTVS_SUBSKEYS>
AAADceB7sAAAAAAAAAAAAAAAAAAAAWAAAAA8YIAAAAAAAFgB/gAAHgAYAAAADAzBngY39vbrlACgAzZjZACSjC0xMqAd2SA+/JiNbuLE+duUNCps2BPK6CeQwJAOIAABAAACQABAAAIAAASAAAAAAAAAAA==

> <PUBCHEM_IUPAC_OPENEYE_NAME>
N-[(3,4-dimethoxyphenyl)methyleneamino]-5H-pyrimido[5,4-b]indol-4-amine

> <PUBCHEM_IUPAC_CAS_NAME>
N-[(3,4-dimethoxyphenyl)methylideneamino]-5H-pyrimido[5,4-b]indol-4-amine

> <PUBCHEM_IUPAC_NAME_MARKUP>
<I>N</I>-[(3,4-dimethoxyphenyl)methylideneamino]-5<I>H</I>-pyrimido[5,4-b]indol-4-amine

> <PUBCHEM_IUPAC_NAME>
N-[(3,4-dimethoxyphenyl)methylideneamino]-5H-pyrimido[5,4-b]indol-4-amine

> <PUBCHEM_IUPAC_SYSTEMATIC_NAME>
N-[(3,4-dimethoxyphenyl)methylideneamino]-5H-pyrimido[5,4-b]indol-4-amine

> <PUBCHEM_IUPAC_TRADITIONAL_NAME>
5H-pyrimid[5,4-b]indol-4-yl-(veratrylideneamino)amine

> <PUBCHEM_IUPAC_INCHI>
InChI=1S/C19H17N5O2/c1-25-15-8-7-12(9-16(15)26-2)10-22-24-19-18-17(20-11-21-19)13-5-3-4-6-14(13)23-18/h3-11,23H,1-2H3,(H,20,21,24)

> <PUBCHEM_IUPAC_INCHIKEY>
YDOPLCNFRXOHCC-UHFFFAOYSA-N

> <PUBCHEM_XLOGP3_AA>
3.6

> <PUBCHEM_EXACT_MASS>
347.13822480

> <PUBCHEM_MOLECULAR_FORMULA>
C19H17N5O2

> <PUBCHEM_MOLECULAR_WEIGHT>
347.4

> <PUBCHEM_SMILES>
COC1=C(C=C(C=C1)C=NNC2=NC=NC3=C2NC4=CC=CC=C43)OC

> <PUBCHEM_OPENEYE_CAN_SMILES>
COC1=C(C=C(C=C1)C=NNC2=NC=NC3=C2NC4=CC=CC=C43)OC

> <PUBCHEM_OPENEYE_ISO_SMILES>
COC1=C(C=C(C=C1)C=NNC2=NC=NC3=C2NC4=CC=CC=C43)OC

> <PUBCHEM_CACTVS_TPSA>
84.4

> <PUBCHEM_MONOISOTOPIC_WEIGHT>
347.13822480

> <PUBCHEM_TOTAL_CHARGE>
0

> <PUBCHEM_HEAVY_ATOM_COUNT>
26

> <PUBCHEM_ATOM_DEF_STEREO_COUNT>
0

> <PUBCHEM_ATOM_UDEF_STEREO_COUNT>
0

> <PUBCHEM_BOND_DEF_STEREO_COUNT>
0

> <PUBCHEM_BOND_UDEF_STEREO_COUNT>
1

> <PUBCHEM_ISOTOPIC_ATOM_COUNT>
0

> <PUBCHEM_COMPONENT_COUNT>
1

> <PUBCHEM_CACTVS_TAUTO_COUNT>
-1

> <PUBCHEM_COORDINATE_TYPE>
1
5
255

> <PUBCHEM_BONDANNOTATIONS>
10  11  8
10  12  8
13  15  8
14  16  8
15  16  8
18  19  8
18  23  8
19  20  8
20  22  8
22  24  8
23  24  8
3  10  8
3  9  8
4  11  8
4  17  8
6  12  8
6  17  8
7  21  1
8  11  8
8  13  8
8  9  8
9  14  8

$$$$
