11650194
  -OEChem-03202506472D

 80 85  0     0  0  0  0  0  0999 V2000
    8.9214    3.4923    0.0000 F   0  0  0  0  0  0  0  0  0  0  0  0
    2.0000   -5.5422    0.0000 O   0  0  0  0  0  0  0  0  0  0  0  0
    5.4641   -1.5422    0.0000 O   0  0  0  0  0  0  0  0  0  0  0  0
    5.4641    0.4578    0.0000 O   0  0  0  0  0  0  0  0  0  0  0  0
    8.9446    1.4924    0.0000 O   0  0  0  0  0  0  0  0  0  0  0  0
   11.5020    5.0222    0.0000 O   0  0  0  0  0  0  0  0  0  0  0  0
    3.7320   -4.5422    0.0000 N   0  0  0  0  0  0  0  0  0  0  0  0
   13.2339    5.0422    0.0000 N   0  0  0  0  0  0  0  0  0  0  0  0
    8.9561   -1.5768    0.0000 N   0  0  0  0  0  0  0  0  0  0  0  0
   14.1172    3.5524    0.0000 N   0  0  0  0  0  0  0  0  0  0  0  0
    2.8660   -4.0422    0.0000 C   0  0  0  0  0  0  0  0  0  0  0  0
    3.7320   -5.5422    0.0000 C   0  0  0  0  0  0  0  0  0  0  0  0
    4.5981   -4.0422    0.0000 C   0  0  0  0  0  0  0  0  0  0  0  0
    2.0000   -4.5422    0.0000 C   0  0  0  0  0  0  0  0  0  0  0  0
    2.8660   -6.0422    0.0000 C   0  0  0  0  0  0  0  0  0  0  0  0
    4.5981   -3.0422    0.0000 C   0  0  0  0  0  0  0  0  0  0  0  0
    5.4641   -2.5422    0.0000 C   0  0  0  0  0  0  0  0  0  0  0  0
    6.3301   -1.0422    0.0000 C   0  0  0  0  0  0  0  0  0  0  0  0
    6.3301   -0.0422    0.0000 C   0  0  0  0  0  0  0  0  0  0  0  0
    7.1962   -1.5422    0.0000 C   0  0  0  0  0  0  0  0  0  0  0  0
    8.0622   -0.0422    0.0000 C   0  0  0  0  0  0  0  0  0  0  0  0
    8.0622   -1.0422    0.0000 C   0  0  0  0  0  0  0  0  0  0  0  0
    7.1962    0.4578    0.0000 C   0  0  0  0  0  0  0  0  0  0  0  0
    8.9561    0.4925    0.0000 C   0  0  0  0  0  0  0  0  0  0  0  0
   14.1057    4.5523    0.0000 C   0  0  0  0  0  0  0  0  0  0  0  0
   14.9659    5.0623    0.0000 C   0  0  0  0  0  0  0  0  0  0  0  0
   12.3853    3.5323    0.0000 C   0  0  0  0  0  0  0  0  0  0  0  0
   11.5251    3.0224    0.0000 C   0  0  0  0  0  0  0  0  0  0  0  0
   12.3737    4.5323    0.0000 C   0  0  0  0  0  0  0  0  0  0  0  0
    9.8622   -0.0214    0.0000 C   0  0  0  0  0  0  0  0  0  0  0  0
    9.8047    2.0024    0.0000 C   0  0  0  0  0  0  0  0  0  0  0  0
   15.8376    4.5723    0.0000 C   0  0  0  0  0  0  0  0  0  0  0  0
   13.2570    3.0424    0.0000 C   0  0  0  0  0  0  0  0  0  0  0  0
   10.6534    3.5123    0.0000 C   0  0  0  0  0  0  0  0  0  0  0  0
   11.5367    2.0224    0.0000 C   0  0  0  0  0  0  0  0  0  0  0  0
    9.8622   -1.0630    0.0000 C   0  0  0  0  0  0  0  0  0  0  0  0
   13.2224    6.0422    0.0000 C   0  0  0  0  0  0  0  0  0  0  0  0
    9.7932    3.0023    0.0000 C   0  0  0  0  0  0  0  0  0  0  0  0
   10.6765    1.5124    0.0000 C   0  0  0  0  0  0  0  0  0  0  0  0
   16.6978    5.0823    0.0000 C   0  0  0  0  0  0  0  0  0  0  0  0
   15.8492    3.5724    0.0000 C   0  0  0  0  0  0  0  0  0  0  0  0
    5.4641    1.4578    0.0000 C   0  0  0  0  0  0  0  0  0  0  0  0
   17.5695    4.5924    0.0000 C   0  0  0  0  0  0  0  0  0  0  0  0
   16.7209    3.0824    0.0000 C   0  0  0  0  0  0  0  0  0  0  0  0
   17.5811    3.5924    0.0000 C   0  0  0  0  0  0  0  0  0  0  0  0
    3.2646   -3.5672    0.0000 H   0  0  0  0  0  0  0  0  0  0  0  0
    2.4675   -3.5672    0.0000 H   0  0  0  0  0  0  0  0  0  0  0  0
    3.9441   -6.1248    0.0000 H   0  0  0  0  0  0  0  0  0  0  0  0
    4.3426   -5.4345    0.0000 H   0  0  0  0  0  0  0  0  0  0  0  0
    4.8101   -4.6248    0.0000 H   0  0  0  0  0  0  0  0  0  0  0  0
    5.2087   -3.9345    0.0000 H   0  0  0  0  0  0  0  0  0  0  0  0
    1.7880   -3.9596    0.0000 H   0  0  0  0  0  0  0  0  0  0  0  0
    1.3894   -4.6498    0.0000 H   0  0  0  0  0  0  0  0  0  0  0  0
    2.4675   -6.5171    0.0000 H   0  0  0  0  0  0  0  0  0  0  0  0
    3.2646   -6.5171    0.0000 H   0  0  0  0  0  0  0  0  0  0  0  0
    4.3860   -2.4596    0.0000 H   0  0  0  0  0  0  0  0  0  0  0  0
    3.9875   -3.1498    0.0000 H   0  0  0  0  0  0  0  0  0  0  0  0
    5.6762   -3.1248    0.0000 H   0  0  0  0  0  0  0  0  0  0  0  0
    6.0747   -2.4345    0.0000 H   0  0  0  0  0  0  0  0  0  0  0  0
    7.1962   -2.1622    0.0000 H   0  0  0  0  0  0  0  0  0  0  0  0
    7.1962    1.0778    0.0000 H   0  0  0  0  0  0  0  0  0  0  0  0
   15.3589    5.5418    0.0000 H   0  0  0  0  0  0  0  0  0  0  0  0
   14.5619    5.5326    0.0000 H   0  0  0  0  0  0  0  0  0  0  0  0
   10.3979    0.2907    0.0000 H   0  0  0  0  0  0  0  0  0  0  0  0
   13.2642    2.4224    0.0000 H   0  0  0  0  0  0  0  0  0  0  0  0
   10.6462    4.1323    0.0000 H   0  0  0  0  0  0  0  0  0  0  0  0
   12.0772    1.7186    0.0000 H   0  0  0  0  0  0  0  0  0  0  0  0
   10.3979   -1.3751    0.0000 H   0  0  0  0  0  0  0  0  0  0  0  0
   13.8423    6.0493    0.0000 H   0  0  0  0  0  0  0  0  0  0  0  0
   13.2152    6.6621    0.0000 H   0  0  0  0  0  0  0  0  0  0  0  0
   12.6024    6.0350    0.0000 H   0  0  0  0  0  0  0  0  0  0  0  0
   10.6837    0.8925    0.0000 H   0  0  0  0  0  0  0  0  0  0  0  0
   16.6906    5.7023    0.0000 H   0  0  0  0  0  0  0  0  0  0  0  0
   15.3159    3.2562    0.0000 H   0  0  0  0  0  0  0  0  0  0  0  0
    6.0841    1.4578    0.0000 H   0  0  0  0  0  0  0  0  0  0  0  0
    5.4641    2.0778    0.0000 H   0  0  0  0  0  0  0  0  0  0  0  0
    4.8441    1.4578    0.0000 H   0  0  0  0  0  0  0  0  0  0  0  0
   18.1029    4.9085    0.0000 H   0  0  0  0  0  0  0  0  0  0  0  0
   16.7281    2.4625    0.0000 H   0  0  0  0  0  0  0  0  0  0  0  0
   18.1216    3.2886    0.0000 H   0  0  0  0  0  0  0  0  0  0  0  0
  1 38  1  0  0  0  0
  2 14  1  0  0  0  0
  2 15  1  0  0  0  0
  3 17  1  0  0  0  0
  3 18  1  0  0  0  0
  4 19  1  0  0  0  0
  4 42  1  0  0  0  0
  5 24  1  0  0  0  0
  5 31  1  0  0  0  0
  6 29  2  0  0  0  0
  7 11  1  0  0  0  0
  7 12  1  0  0  0  0
  7 13  1  0  0  0  0
  8 25  1  0  0  0  0
  8 29  1  0  0  0  0
  8 37  1  0  0  0  0
  9 22  2  0  0  0  0
  9 36  1  0  0  0  0
 10 25  2  0  0  0  0
 10 33  1  0  0  0  0
 11 14  1  0  0  0  0
 11 46  1  0  0  0  0
 11 47  1  0  0  0  0
 12 15  1  0  0  0  0
 12 48  1  0  0  0  0
 12 49  1  0  0  0  0
 13 16  1  0  0  0  0
 13 50  1  0  0  0  0
 13 51  1  0  0  0  0
 14 52  1  0  0  0  0
 14 53  1  0  0  0  0
 15 54  1  0  0  0  0
 15 55  1  0  0  0  0
 16 17  1  0  0  0  0
 16 56  1  0  0  0  0
 16 57  1  0  0  0  0
 17 58  1  0  0  0  0
 17 59  1  0  0  0  0
 18 19  1  0  0  0  0
 18 20  2  0  0  0  0
 19 23  2  0  0  0  0
 20 22  1  0  0  0  0
 20 60  1  0  0  0  0
 21 22  1  0  0  0  0
 21 23  1  0  0  0  0
 21 24  2  0  0  0  0
 23 61  1  0  0  0  0
 24 30  1  0  0  0  0
 25 26  1  0  0  0  0
 26 32  1  0  0  0  0
 26 62  1  0  0  0  0
 26 63  1  0  0  0  0
 27 28  1  0  0  0  0
 27 29  1  0  0  0  0
 27 33  2  0  0  0  0
 28 34  2  0  0  0  0
 28 35  1  0  0  0  0
 30 36  2  0  0  0  0
 30 64  1  0  0  0  0
 31 38  2  0  0  0  0
 31 39  1  0  0  0  0
 32 40  2  0  0  0  0
 32 41  1  0  0  0  0
 33 65  1  0  0  0  0
 34 38  1  0  0  0  0
 34 66  1  0  0  0  0
 35 39  2  0  0  0  0
 35 67  1  0  0  0  0
 36 68  1  0  0  0  0
 37 69  1  0  0  0  0
 37 70  1  0  0  0  0
 37 71  1  0  0  0  0
 39 72  1  0  0  0  0
 40 43  1  0  0  0  0
 40 73  1  0  0  0  0
 41 44  2  0  0  0  0
 41 74  1  0  0  0  0
 42 75  1  0  0  0  0
 42 76  1  0  0  0  0
 42 77  1  0  0  0  0
 43 45  2  0  0  0  0
 43 78  1  0  0  0  0
 44 45  1  0  0  0  0
 44 79  1  0  0  0  0
 45 80  1  0  0  0  0
M  END
> <PUBCHEM_COMPOUND_CID>
11650194

> <PUBCHEM_COMPOUND_CANONICALIZED>
1

> <PUBCHEM_CACTVS_COMPLEXITY>
1030

> <PUBCHEM_CACTVS_HBOND_ACCEPTOR>
9

> <PUBCHEM_CACTVS_HBOND_DONOR>
0

> <PUBCHEM_CACTVS_ROTATABLE_BOND>
11

> <PUBCHEM_CACTVS_SUBSKEYS>
AAADcfB/uQAAAAAAAAAAAAAAAAAAAAAAAAA8eMECAAAAAACx9AAAHwAAAAAADAzhng4/xvMIFACoAzd3dACCiCExIiAJ2CE+7NgPJvLEvZuHOCrmxhna6Mf4+L+OIEABAgACQABAgAIEAASAAAAAAAAAAA==

> <PUBCHEM_IUPAC_OPENEYE_NAME>
2-benzyl-5-[3-fluoro-4-[[6-methoxy-7-(3-morpholinopropoxy)-4-quinolyl]oxy]phenyl]-3-methyl-pyrimidin-4-one

> <PUBCHEM_IUPAC_CAS_NAME>
5-[3-fluoro-4-[[6-methoxy-7-[3-(4-morpholinyl)propoxy]-4-quinolinyl]oxy]phenyl]-3-methyl-2-(phenylmethyl)-4-pyrimidinone

> <PUBCHEM_IUPAC_NAME_MARKUP>
2-benzyl-5-[3-fluoro-4-[6-methoxy-7-(3-morpholin-4-ylpropoxy)quinolin-4-yl]oxyphenyl]-3-methylpyrimidin-4-one

> <PUBCHEM_IUPAC_NAME>
2-benzyl-5-[3-fluoro-4-[6-methoxy-7-(3-morpholin-4-ylpropoxy)quinolin-4-yl]oxyphenyl]-3-methylpyrimidin-4-one

> <PUBCHEM_IUPAC_SYSTEMATIC_NAME>
5-[3-fluoranyl-4-[6-methoxy-7-(3-morpholin-4-ylpropoxy)quinolin-4-yl]oxy-phenyl]-3-methyl-2-(phenylmethyl)pyrimidin-4-one

> <PUBCHEM_IUPAC_TRADITIONAL_NAME>
2-benzyl-5-[3-fluoro-4-[[6-methoxy-7-(3-morpholinopropoxy)-4-quinolyl]oxy]phenyl]-3-methyl-pyrimidin-4-one

> <PUBCHEM_IUPAC_INCHI>
InChI=1S/C35H35FN4O5/c1-39-34(19-24-7-4-3-5-8-24)38-23-27(35(39)41)25-9-10-31(28(36)20-25)45-30-11-12-37-29-22-33(32(42-2)21-26(29)30)44-16-6-13-40-14-17-43-18-15-40/h3-5,7-12,20-23H,6,13-19H2,1-2H3

> <PUBCHEM_IUPAC_INCHIKEY>
PEGWVOKOYYAQEV-UHFFFAOYSA-N

> <PUBCHEM_XLOGP3_AA>
4.5

> <PUBCHEM_EXACT_MASS>
610.25914839

> <PUBCHEM_MOLECULAR_FORMULA>
C35H35FN4O5

> <PUBCHEM_MOLECULAR_WEIGHT>
610.7

> <PUBCHEM_SMILES>
CN1C(=NC=C(C1=O)C2=CC(=C(C=C2)OC3=C4C=C(C(=CC4=NC=C3)OCCCN5CCOCC5)OC)F)CC6=CC=CC=C6

> <PUBCHEM_OPENEYE_CAN_SMILES>
CN1C(=NC=C(C1=O)C2=CC(=C(C=C2)OC3=C4C=C(C(=CC4=NC=C3)OCCCN5CCOCC5)OC)F)CC6=CC=CC=C6

> <PUBCHEM_OPENEYE_ISO_SMILES>
CN1C(=NC=C(C1=O)C2=CC(=C(C=C2)OC3=C4C=C(C(=CC4=NC=C3)OCCCN5CCOCC5)OC)F)CC6=CC=CC=C6

> <PUBCHEM_CACTVS_TPSA>
85.7

> <PUBCHEM_MONOISOTOPIC_WEIGHT>
610.25914839

> <PUBCHEM_TOTAL_CHARGE>
0

> <PUBCHEM_HEAVY_ATOM_COUNT>
45

> <PUBCHEM_ATOM_DEF_STEREO_COUNT>
0

> <PUBCHEM_ATOM_UDEF_STEREO_COUNT>
0

> <PUBCHEM_BOND_DEF_STEREO_COUNT>
0

> <PUBCHEM_BOND_UDEF_STEREO_COUNT>
0

> <PUBCHEM_ISOTOPIC_ATOM_COUNT>
0

> <PUBCHEM_COMPONENT_COUNT>
1

> <PUBCHEM_CACTVS_TAUTO_COUNT>
-1

> <PUBCHEM_COORDINATE_TYPE>
1
5
255

> <PUBCHEM_BONDANNOTATIONS>
10  25  8
10  33  8
18  19  8
18  20  8
19  23  8
20  22  8
21  22  8
21  23  8
21  24  8
24  30  8
27  29  8
27  33  8
28  34  8
28  35  8
30  36  8
31  38  8
31  39  8
32  40  8
32  41  8
34  38  8
35  39  8
40  43  8
41  44  8
43  45  8
44  45  8
8  25  8
8  29  8
9  22  8
9  36  8

$$$$
