22557045
  -OEChem-03202503462D

 73 79  0     1  0  0  0  0  0999 V2000
    2.5369    1.4575    0.0000 O   0  0  0  0  0  0  0  0  0  0  0  0
   16.7374   -1.8197    0.0000 O   0  0  0  0  0  0  0  0  0  0  0  0
   14.9939   -2.7996    0.0000 O   0  0  0  0  0  0  0  0  0  0  0  0
    6.3521    0.2549    0.0000 N   0  0  0  0  0  0  0  0  0  0  0  0
   13.3082    3.2895    0.0000 N   0  0  0  0  0  0  0  0  0  0  0  0
   13.2967    0.2203    0.0000 N   0  0  0  0  0  0  0  0  0  0  0  0
   14.2143    1.7340    0.0000 N   0  0  0  0  0  0  0  0  0  0  0  0
    4.7694    0.5913    0.0000 C   0  0  3  0  0  0  0  0  0  0  0  0
    5.2694    1.4573    0.0000 C   0  0  3  0  0  0  0  0  0  0  0  0
    4.2690    1.4575    0.0000 C   0  0  0  0  0  0  0  0  0  0  0  0
    5.4386   -0.1519    0.0000 C   0  0  0  0  0  0  0  0  0  0  0  0
    6.2476    1.2494    0.0000 C   0  0  0  0  0  0  0  0  0  0  0  0
    3.4030    1.9576    0.0000 C   0  0  0  0  0  0  0  0  0  0  0  0
    7.2181   -0.2451    0.0000 C   0  0  0  0  0  0  0  0  0  0  0  0
    8.0842    0.2549    0.0000 C   0  0  0  0  0  0  0  0  0  0  0  0
    8.9502   -0.2451    0.0000 C   0  0  0  0  0  0  0  0  0  0  0  0
    8.0842    1.2549    0.0000 C   0  0  0  0  0  0  0  0  0  0  0  0
    9.8162    0.2549    0.0000 C   0  0  0  0  0  0  0  0  0  0  0  0
    8.9502    1.7549    0.0000 C   0  0  0  0  0  0  0  0  0  0  0  0
    9.8162    1.2549    0.0000 C   0  0  0  0  0  0  0  0  0  0  0  0
   10.6822    1.7549    0.0000 C   0  0  0  0  0  0  0  0  0  0  0  0
   11.5483    1.2549    0.0000 C   0  0  0  0  0  0  0  0  0  0  0  0
   10.6822    2.7549    0.0000 C   0  0  0  0  0  0  0  0  0  0  0  0
   12.4143    1.7549    0.0000 C   0  0  0  0  0  0  0  0  0  0  0  0
   11.5483    3.2549    0.0000 C   0  0  0  0  0  0  0  0  0  0  0  0
   12.4143    2.7549    0.0000 C   0  0  0  0  0  0  0  0  0  0  0  0
   13.3082    1.2202    0.0000 C   0  0  0  0  0  0  0  0  0  0  0  0
   14.2143    2.7757    0.0000 C   0  0  0  0  0  0  0  0  0  0  0  0
   14.1568   -0.2897    0.0000 C   0  0  0  0  0  0  0  0  0  0  0  0
   14.1453   -1.2896    0.0000 C   0  0  0  0  0  0  0  0  0  0  0  0
   15.0286    0.2002    0.0000 C   0  0  0  0  0  0  0  0  0  0  0  0
   15.0055   -1.7996    0.0000 C   0  0  0  0  0  0  0  0  0  0  0  0
   15.8888   -0.3097    0.0000 C   0  0  0  0  0  0  0  0  0  0  0  0
   15.8772   -1.3097    0.0000 C   0  0  0  0  0  0  0  0  0  0  0  0
   17.6092   -1.3297    0.0000 C   0  0  0  0  0  0  0  0  0  0  0  0
   14.1222   -3.2895    0.0000 C   0  0  0  0  0  0  0  0  0  0  0  0
   18.4693   -1.8397    0.0000 C   0  0  0  0  0  0  0  0  0  0  0  0
   17.6207   -0.3298    0.0000 C   0  0  0  0  0  0  0  0  0  0  0  0
   19.3411   -1.3497    0.0000 C   0  0  0  0  0  0  0  0  0  0  0  0
   18.4925    0.1602    0.0000 C   0  0  0  0  0  0  0  0  0  0  0  0
   19.3527   -0.3498    0.0000 C   0  0  0  0  0  0  0  0  0  0  0  0
    4.2679    0.2268    0.0000 H   0  0  0  0  0  0  0  0  0  0  0  0
    5.3343    2.0739    0.0000 H   0  0  0  0  0  0  0  0  0  0  0  0
    4.4295    2.0564    0.0000 H   0  0  0  0  0  0  0  0  0  0  0  0
    4.9370   -0.5163    0.0000 H   0  0  0  0  0  0  0  0  0  0  0  0
    5.7486   -0.6888    0.0000 H   0  0  0  0  0  0  0  0  0  0  0  0
    6.8676    1.2494    0.0000 H   0  0  0  0  0  0  0  0  0  0  0  0
    6.3124    1.8660    0.0000 H   0  0  0  0  0  0  0  0  0  0  0  0
    3.8015    2.4325    0.0000 H   0  0  0  0  0  0  0  0  0  0  0  0
    3.0044    2.4325    0.0000 H   0  0  0  0  0  0  0  0  0  0  0  0
    6.8196   -0.7201    0.0000 H   0  0  0  0  0  0  0  0  0  0  0  0
    7.6167   -0.7201    0.0000 H   0  0  0  0  0  0  0  0  0  0  0  0
    2.0000    1.7676    0.0000 H   0  0  0  0  0  0  0  0  0  0  0  0
    8.9502   -0.8651    0.0000 H   0  0  0  0  0  0  0  0  0  0  0  0
    7.5472    1.5649    0.0000 H   0  0  0  0  0  0  0  0  0  0  0  0
   10.3531   -0.0551    0.0000 H   0  0  0  0  0  0  0  0  0  0  0  0
    8.9502    2.3749    0.0000 H   0  0  0  0  0  0  0  0  0  0  0  0
   11.5483    0.6349    0.0000 H   0  0  0  0  0  0  0  0  0  0  0  0
   10.1453    3.0649    0.0000 H   0  0  0  0  0  0  0  0  0  0  0  0
   11.5483    3.8749    0.0000 H   0  0  0  0  0  0  0  0  0  0  0  0
   12.7562   -0.0835    0.0000 H   0  0  0  0  0  0  0  0  0  0  0  0
   14.7500    3.0877    0.0000 H   0  0  0  0  0  0  0  0  0  0  0  0
   13.6048   -1.5934    0.0000 H   0  0  0  0  0  0  0  0  0  0  0  0
   15.0358    0.8202    0.0000 H   0  0  0  0  0  0  0  0  0  0  0  0
   16.4293   -0.0060    0.0000 H   0  0  0  0  0  0  0  0  0  0  0  0
   13.8184   -2.7490    0.0000 H   0  0  0  0  0  0  0  0  0  0  0  0
   13.5817   -3.5933    0.0000 H   0  0  0  0  0  0  0  0  0  0  0  0
   14.4259   -3.8300    0.0000 H   0  0  0  0  0  0  0  0  0  0  0  0
   18.4622   -2.4596    0.0000 H   0  0  0  0  0  0  0  0  0  0  0  0
   17.0874   -0.0136    0.0000 H   0  0  0  0  0  0  0  0  0  0  0  0
   19.8744   -1.6659    0.0000 H   0  0  0  0  0  0  0  0  0  0  0  0
   18.4996    0.7801    0.0000 H   0  0  0  0  0  0  0  0  0  0  0  0
   19.8931   -0.0460    0.0000 H   0  0  0  0  0  0  0  0  0  0  0  0
  1 13  1  0  0  0  0
  1 53  1  0  0  0  0
  2 34  1  0  0  0  0
  2 35  1  0  0  0  0
  3 32  1  0  0  0  0
  3 36  1  0  0  0  0
  4 11  1  0  0  0  0
  4 12  1  0  0  0  0
  4 14  1  0  0  0  0
  5 26  1  0  0  0  0
  5 28  2  0  0  0  0
  6 27  1  0  0  0  0
  6 29  1  0  0  0  0
  6 61  1  0  0  0  0
  7 27  2  0  0  0  0
  7 28  1  0  0  0  0
  8  9  1  0  0  0  0
  8 10  1  0  0  0  0
  8 11  1  0  0  0  0
  8 42  1  0  0  0  0
  9 10  1  0  0  0  0
  9 12  1  0  0  0  0
  9 43  1  0  0  0  0
 10 13  1  0  0  0  0
 10 44  1  0  0  0  0
 11 45  1  0  0  0  0
 11 46  1  0  0  0  0
 12 47  1  0  0  0  0
 12 48  1  0  0  0  0
 13 49  1  0  0  0  0
 13 50  1  0  0  0  0
 14 15  1  0  0  0  0
 14 51  1  0  0  0  0
 14 52  1  0  0  0  0
 15 16  2  0  0  0  0
 15 17  1  0  0  0  0
 16 18  1  0  0  0  0
 16 54  1  0  0  0  0
 17 19  2  0  0  0  0
 17 55  1  0  0  0  0
 18 20  2  0  0  0  0
 18 56  1  0  0  0  0
 19 20  1  0  0  0  0
 19 57  1  0  0  0  0
 20 21  1  0  0  0  0
 21 22  2  0  0  0  0
 21 23  1  0  0  0  0
 22 24  1  0  0  0  0
 22 58  1  0  0  0  0
 23 25  2  0  0  0  0
 23 59  1  0  0  0  0
 24 26  2  0  0  0  0
 24 27  1  0  0  0  0
 25 26  1  0  0  0  0
 25 60  1  0  0  0  0
 28 62  1  0  0  0  0
 29 30  2  0  0  0  0
 29 31  1  0  0  0  0
 30 32  1  0  0  0  0
 30 63  1  0  0  0  0
 31 33  2  0  0  0  0
 31 64  1  0  0  0  0
 32 34  2  0  0  0  0
 33 34  1  0  0  0  0
 33 65  1  0  0  0  0
 35 37  2  0  0  0  0
 35 38  1  0  0  0  0
 36 66  1  0  0  0  0
 36 67  1  0  0  0  0
 36 68  1  0  0  0  0
 37 39  1  0  0  0  0
 37 69  1  0  0  0  0
 38 40  2  0  0  0  0
 38 70  1  0  0  0  0
 39 41  2  0  0  0  0
 39 71  1  0  0  0  0
 40 41  1  0  0  0  0
 40 72  1  0  0  0  0
 41 73  1  0  0  0  0
M  END
> <PUBCHEM_COMPOUND_CID>
22557045

> <PUBCHEM_COMPOUND_CANONICALIZED>
1

> <PUBCHEM_CACTVS_COMPLEXITY>
821

> <PUBCHEM_CACTVS_HBOND_ACCEPTOR>
7

> <PUBCHEM_CACTVS_HBOND_DONOR>
2

> <PUBCHEM_CACTVS_ROTATABLE_BOND>
9

> <PUBCHEM_CACTVS_SUBSKEYS>
AAADcfB/sAAAAAAAAAAAAAAAGAAAAWAAAAA8eMGCAAAAAACx9AAAHgAQCAAADQzhngY39vfIFgCgAyZjZACCiCkxIqAJ2CA+7JiNPuLE+duGfCru0BvK6Cew0MMOyEACAgACQACQgAQEAASAAAAAAAAAAA==

> <PUBCHEM_IUPAC_OPENEYE_NAME>
[3-[[4-[4-(3-methoxy-4-phenoxy-anilino)quinazolin-6-yl]phenyl]methyl]-3-azabicyclo[3.1.0]hexan-6-yl]methanol

> <PUBCHEM_IUPAC_CAS_NAME>
[3-[[4-[4-(3-methoxy-4-phenoxyanilino)-6-quinazolinyl]phenyl]methyl]-3-azabicyclo[3.1.0]hexan-6-yl]methanol

> <PUBCHEM_IUPAC_NAME_MARKUP>
[3-[[4-[4-(3-methoxy-4-phenoxyanilino)quinazolin-6-yl]phenyl]methyl]-3-azabicyclo[3.1.0]hexan-6-yl]methanol

> <PUBCHEM_IUPAC_NAME>
[3-[[4-[4-(3-methoxy-4-phenoxyanilino)quinazolin-6-yl]phenyl]methyl]-3-azabicyclo[3.1.0]hexan-6-yl]methanol

> <PUBCHEM_IUPAC_SYSTEMATIC_NAME>
[3-[[4-[4-[(3-methoxy-4-phenoxy-phenyl)amino]quinazolin-6-yl]phenyl]methyl]-3-azabicyclo[3.1.0]hexan-6-yl]methanol

> <PUBCHEM_IUPAC_TRADITIONAL_NAME>
[3-[4-[4-(3-methoxy-4-phenoxy-anilino)quinazolin-6-yl]benzyl]-3-azabicyclo[3.1.0]hexan-6-yl]methanol

> <PUBCHEM_IUPAC_INCHI>
InChI=1S/C34H32N4O3/c1-40-33-16-25(12-14-32(33)41-26-5-3-2-4-6-26)37-34-27-15-24(11-13-31(27)35-21-36-34)23-9-7-22(8-10-23)17-38-18-28-29(19-38)30(28)20-39/h2-16,21,28-30,39H,17-20H2,1H3,(H,35,36,37)

> <PUBCHEM_IUPAC_INCHIKEY>
WZZXMNBOPNKKSX-UHFFFAOYSA-N

> <PUBCHEM_XLOGP3_AA>
6

> <PUBCHEM_EXACT_MASS>
544.24744090

> <PUBCHEM_MOLECULAR_FORMULA>
C34H32N4O3

> <PUBCHEM_MOLECULAR_WEIGHT>
544.6

> <PUBCHEM_SMILES>
COC1=C(C=CC(=C1)NC2=NC=NC3=C2C=C(C=C3)C4=CC=C(C=C4)CN5CC6C(C5)C6CO)OC7=CC=CC=C7

> <PUBCHEM_OPENEYE_CAN_SMILES>
COC1=C(C=CC(=C1)NC2=NC=NC3=C2C=C(C=C3)C4=CC=C(C=C4)CN5CC6C(C5)C6CO)OC7=CC=CC=C7

> <PUBCHEM_OPENEYE_ISO_SMILES>
COC1=C(C=CC(=C1)NC2=NC=NC3=C2C=C(C=C3)C4=CC=C(C=C4)CN5CC6C(C5)C6CO)OC7=CC=CC=C7

> <PUBCHEM_CACTVS_TPSA>
79.7

> <PUBCHEM_MONOISOTOPIC_WEIGHT>
544.24744090

> <PUBCHEM_TOTAL_CHARGE>
0

> <PUBCHEM_HEAVY_ATOM_COUNT>
41

> <PUBCHEM_ATOM_DEF_STEREO_COUNT>
0

> <PUBCHEM_ATOM_UDEF_STEREO_COUNT>
2

> <PUBCHEM_BOND_DEF_STEREO_COUNT>
0

> <PUBCHEM_BOND_UDEF_STEREO_COUNT>
0

> <PUBCHEM_ISOTOPIC_ATOM_COUNT>
0

> <PUBCHEM_COMPONENT_COUNT>
1

> <PUBCHEM_CACTVS_TAUTO_COUNT>
-1

> <PUBCHEM_COORDINATE_TYPE>
1
5
255

> <PUBCHEM_BONDANNOTATIONS>
15  16  8
15  17  8
16  18  8
17  19  8
18  20  8
19  20  8
21  22  8
21  23  8
22  24  8
23  25  8
24  26  8
24  27  8
25  26  8
29  30  8
29  31  8
30  32  8
31  33  8
32  34  8
33  34  8
35  37  8
35  38  8
37  39  8
38  40  8
39  41  8
40  41  8
5  26  8
5  28  8
7  27  8
7  28  8
8  11  3
9  12  3

$$$$
