24884503
  -OEChem-03192523182D

 62 66  0     0  0  0  0  0  0999 V2000
    2.0000   -6.3818    0.0000 F   0  0  0  0  0  0  0  0  0  0  0  0
    3.0000   -7.3818    0.0000 F   0  0  0  0  0  0  0  0  0  0  0  0
    4.0000   -6.3818    0.0000 F   0  0  0  0  0  0  0  0  0  0  0  0
    5.5981   -3.8818    0.0000 O   0  0  0  0  0  0  0  0  0  0  0  0
    7.3301    1.1182    0.0000 N   0  0  0  0  0  0  0  0  0  0  0  0
    8.2764    0.8135    0.0000 N   0  0  0  0  0  0  0  0  0  0  0  0
   10.4975    6.4313    0.0000 N   0  0  0  0  0  0  0  0  0  0  0  0
    6.4641    2.6182    0.0000 N   0  0  0  0  0  0  0  0  0  0  0  0
    4.7320   -2.3818    0.0000 N   0  0  0  0  0  0  0  0  0  0  0  0
    8.2764    2.4230    0.0000 C   0  0  0  0  0  0  0  0  0  0  0  0
    7.3301    2.1182    0.0000 C   0  0  0  0  0  0  0  0  0  0  0  0
    8.5870    3.3735    0.0000 C   0  0  0  0  0  0  0  0  0  0  0  0
    6.4641    0.6182    0.0000 C   0  0  0  0  0  0  0  0  0  0  0  0
    9.2083    5.2745    0.0000 C   0  0  0  0  0  0  0  0  0  0  0  0
    6.4641   -0.3818    0.0000 C   0  0  0  0  0  0  0  0  0  0  0  0
    9.5190    6.2250    0.0000 C   0  0  0  0  0  0  0  0  0  0  0  0
    8.8600    1.6182    0.0000 C   0  0  0  0  0  0  0  0  0  0  0  0
    7.9192    4.1178    0.0000 C   0  0  0  0  0  0  0  0  0  0  0  0
    9.5655    3.5797    0.0000 C   0  0  0  0  0  0  0  0  0  0  0  0
    8.2298    5.0683    0.0000 C   0  0  0  0  0  0  0  0  0  0  0  0
    9.8762    4.5302    0.0000 C   0  0  0  0  0  0  0  0  0  0  0  0
    5.5981    1.1182    0.0000 C   0  0  0  0  0  0  0  0  0  0  0  0
    5.5981   -0.8818    0.0000 C   0  0  0  0  0  0  0  0  0  0  0  0
    7.3301   -0.8818    0.0000 C   0  0  0  0  0  0  0  0  0  0  0  0
    5.5981   -1.8818    0.0000 C   0  0  0  0  0  0  0  0  0  0  0  0
    5.5981    2.1182    0.0000 C   0  0  0  0  0  0  0  0  0  0  0  0
    7.3301   -1.8818    0.0000 C   0  0  0  0  0  0  0  0  0  0  0  0
    6.4641   -2.3818    0.0000 C   0  0  0  0  0  0  0  0  0  0  0  0
   10.8082    7.3818    0.0000 C   0  0  0  0  0  0  0  0  0  0  0  0
   11.1653    5.6870    0.0000 C   0  0  0  0  0  0  0  0  0  0  0  0
    4.7320   -3.3818    0.0000 C   0  0  0  0  0  0  0  0  0  0  0  0
    3.8660   -3.8818    0.0000 C   0  0  0  0  0  0  0  0  0  0  0  0
    3.8660   -4.8818    0.0000 C   0  0  0  0  0  0  0  0  0  0  0  0
    3.0000   -5.3818    0.0000 C   0  0  0  0  0  0  0  0  0  0  0  0
    3.0000   -3.3818    0.0000 C   0  0  0  0  0  0  0  0  0  0  0  0
    2.1340   -4.8818    0.0000 C   0  0  0  0  0  0  0  0  0  0  0  0
    2.1340   -3.8818    0.0000 C   0  0  0  0  0  0  0  0  0  0  0  0
    3.0000   -6.3818    0.0000 C   0  0  0  0  0  0  0  0  0  0  0  0
    9.4984    6.8447    0.0000 H   0  0  0  0  0  0  0  0  0  0  0  0
    8.9052    6.3124    0.0000 H   0  0  0  0  0  0  0  0  0  0  0  0
    9.4800    1.6182    0.0000 H   0  0  0  0  0  0  0  0  0  0  0  0
    7.3125    3.9899    0.0000 H   0  0  0  0  0  0  0  0  0  0  0  0
    9.9796    3.1182    0.0000 H   0  0  0  0  0  0  0  0  0  0  0  0
    7.8158    5.5298    0.0000 H   0  0  0  0  0  0  0  0  0  0  0  0
   10.4829    4.6581    0.0000 H   0  0  0  0  0  0  0  0  0  0  0  0
    5.0611    0.8082    0.0000 H   0  0  0  0  0  0  0  0  0  0  0  0
    5.0611   -0.5718    0.0000 H   0  0  0  0  0  0  0  0  0  0  0  0
    7.8671   -0.5718    0.0000 H   0  0  0  0  0  0  0  0  0  0  0  0
    5.0611    2.4282    0.0000 H   0  0  0  0  0  0  0  0  0  0  0  0
    6.4641   -3.0018    0.0000 H   0  0  0  0  0  0  0  0  0  0  0  0
    7.8671   -2.1918    0.0000 H   0  0  0  0  0  0  0  0  0  0  0  0
   11.3975    7.1892    0.0000 H   0  0  0  0  0  0  0  0  0  0  0  0
   11.0008    7.9711    0.0000 H   0  0  0  0  0  0  0  0  0  0  0  0
   10.2188    7.5744    0.0000 H   0  0  0  0  0  0  0  0  0  0  0  0
   10.7039    5.2729    0.0000 H   0  0  0  0  0  0  0  0  0  0  0  0
   11.5794    5.2255    0.0000 H   0  0  0  0  0  0  0  0  0  0  0  0
   11.6268    6.1010    0.0000 H   0  0  0  0  0  0  0  0  0  0  0  0
    4.1951   -2.0718    0.0000 H   0  0  0  0  0  0  0  0  0  0  0  0
    4.4030   -5.1918    0.0000 H   0  0  0  0  0  0  0  0  0  0  0  0
    3.0000   -2.7618    0.0000 H   0  0  0  0  0  0  0  0  0  0  0  0
    1.5970   -5.1918    0.0000 H   0  0  0  0  0  0  0  0  0  0  0  0
    1.5970   -3.5718    0.0000 H   0  0  0  0  0  0  0  0  0  0  0  0
  1 38  1  0  0  0  0
  2 38  1  0  0  0  0
  3 38  1  0  0  0  0
  4 31  2  0  0  0  0
  5  6  1  0  0  0  0
  5 11  1  0  0  0  0
  5 13  1  0  0  0  0
  6 17  2  0  0  0  0
  7 16  1  0  0  0  0
  7 29  1  0  0  0  0
  7 30  1  0  0  0  0
  8 11  1  0  0  0  0
  8 26  2  0  0  0  0
  9 25  1  0  0  0  0
  9 31  1  0  0  0  0
  9 58  1  0  0  0  0
 10 11  2  0  0  0  0
 10 12  1  0  0  0  0
 10 17  1  0  0  0  0
 12 18  2  0  0  0  0
 12 19  1  0  0  0  0
 13 15  1  0  0  0  0
 13 22  2  0  0  0  0
 14 16  1  0  0  0  0
 14 20  2  0  0  0  0
 14 21  1  0  0  0  0
 15 23  2  0  0  0  0
 15 24  1  0  0  0  0
 16 39  1  0  0  0  0
 16 40  1  0  0  0  0
 17 41  1  0  0  0  0
 18 20  1  0  0  0  0
 18 42  1  0  0  0  0
 19 21  2  0  0  0  0
 19 43  1  0  0  0  0
 20 44  1  0  0  0  0
 21 45  1  0  0  0  0
 22 26  1  0  0  0  0
 22 46  1  0  0  0  0
 23 25  1  0  0  0  0
 23 47  1  0  0  0  0
 24 27  2  0  0  0  0
 24 48  1  0  0  0  0
 25 28  2  0  0  0  0
 26 49  1  0  0  0  0
 27 28  1  0  0  0  0
 27 51  1  0  0  0  0
 28 50  1  0  0  0  0
 29 52  1  0  0  0  0
 29 53  1  0  0  0  0
 29 54  1  0  0  0  0
 30 55  1  0  0  0  0
 30 56  1  0  0  0  0
 30 57  1  0  0  0  0
 31 32  1  0  0  0  0
 32 33  2  0  0  0  0
 32 35  1  0  0  0  0
 33 34  1  0  0  0  0
 33 59  1  0  0  0  0
 34 36  2  0  0  0  0
 34 38  1  0  0  0  0
 35 37  2  0  0  0  0
 35 60  1  0  0  0  0
 36 37  1  0  0  0  0
 36 61  1  0  0  0  0
 37 62  1  0  0  0  0
M  END
> <PUBCHEM_COMPOUND_CID>
24884503

> <PUBCHEM_COMPOUND_CANONICALIZED>
1

> <PUBCHEM_CACTVS_COMPLEXITY>
787

> <PUBCHEM_CACTVS_HBOND_ACCEPTOR>
7

> <PUBCHEM_CACTVS_HBOND_DONOR>
1

> <PUBCHEM_CACTVS_ROTATABLE_BOND>
6

> <PUBCHEM_CACTVS_SUBSKEYS>
AAADceB7oYAAAAAAAAAAAAAAAAAAAWAAAAA8YMEAAAAAAFgB9AAAHwAYAAAADAjBnxQ/8J/IEACqAzd3dACShCs1gqAd2CE4ZNiIKPLA3dGEpQhonALIyacYiMCOwAACQAAAAACAAASAAAAAAAAAAAAAAA==

> <PUBCHEM_IUPAC_OPENEYE_NAME>
N-[3-[3-[4-[(dimethylamino)methyl]phenyl]pyrazolo[1,5-a]pyrimidin-7-yl]phenyl]-3-(trifluoromethyl)benzamide

> <PUBCHEM_IUPAC_CAS_NAME>
N-[3-[3-[4-[(dimethylamino)methyl]phenyl]-7-pyrazolo[1,5-a]pyrimidinyl]phenyl]-3-(trifluoromethyl)benzamide

> <PUBCHEM_IUPAC_NAME_MARKUP>
<I>N</I>-[3-[3-[4-[(dimethylamino)methyl]phenyl]pyrazolo[1,5-a]pyrimidin-7-yl]phenyl]-3-(trifluoromethyl)benzamide

> <PUBCHEM_IUPAC_NAME>
N-[3-[3-[4-[(dimethylamino)methyl]phenyl]pyrazolo[1,5-a]pyrimidin-7-yl]phenyl]-3-(trifluoromethyl)benzamide

> <PUBCHEM_IUPAC_SYSTEMATIC_NAME>
N-[3-[3-[4-[(dimethylamino)methyl]phenyl]pyrazolo[1,5-a]pyrimidin-7-yl]phenyl]-3-(trifluoromethyl)benzamide

> <PUBCHEM_IUPAC_TRADITIONAL_NAME>
N-[3-[3-[4-[(dimethylamino)methyl]phenyl]pyrazolo[1,5-a]pyrimidin-7-yl]phenyl]-3-(trifluoromethyl)benzamide

> <PUBCHEM_IUPAC_INCHI>
InChI=1S/C29H24F3N5O/c1-36(2)18-19-9-11-20(12-10-19)25-17-34-37-26(13-14-33-27(25)37)21-5-4-8-24(16-21)35-28(38)22-6-3-7-23(15-22)29(30,31)32/h3-17H,18H2,1-2H3,(H,35,38)

> <PUBCHEM_IUPAC_INCHIKEY>
AIWJVLQNYNCDSL-UHFFFAOYSA-N

> <PUBCHEM_XLOGP3_AA>
5.2

> <PUBCHEM_EXACT_MASS>
515.19329489

> <PUBCHEM_MOLECULAR_FORMULA>
C29H24F3N5O

> <PUBCHEM_MOLECULAR_WEIGHT>
515.5

> <PUBCHEM_SMILES>
CN(C)CC1=CC=C(C=C1)C2=C3N=CC=C(N3N=C2)C4=CC(=CC=C4)NC(=O)C5=CC(=CC=C5)C(F)(F)F

> <PUBCHEM_OPENEYE_CAN_SMILES>
CN(C)CC1=CC=C(C=C1)C2=C3N=CC=C(N3N=C2)C4=CC(=CC=C4)NC(=O)C5=CC(=CC=C5)C(F)(F)F

> <PUBCHEM_OPENEYE_ISO_SMILES>
CN(C)CC1=CC=C(C=C1)C2=C3N=CC=C(N3N=C2)C4=CC(=CC=C4)NC(=O)C5=CC(=CC=C5)C(F)(F)F

> <PUBCHEM_CACTVS_TPSA>
62.5

> <PUBCHEM_MONOISOTOPIC_WEIGHT>
515.19329489

> <PUBCHEM_TOTAL_CHARGE>
0

> <PUBCHEM_HEAVY_ATOM_COUNT>
38

> <PUBCHEM_ATOM_DEF_STEREO_COUNT>
0

> <PUBCHEM_ATOM_UDEF_STEREO_COUNT>
0

> <PUBCHEM_BOND_DEF_STEREO_COUNT>
0

> <PUBCHEM_BOND_UDEF_STEREO_COUNT>
0

> <PUBCHEM_ISOTOPIC_ATOM_COUNT>
0

> <PUBCHEM_COMPONENT_COUNT>
1

> <PUBCHEM_CACTVS_TAUTO_COUNT>
-1

> <PUBCHEM_COORDINATE_TYPE>
1
5
255

> <PUBCHEM_BONDANNOTATIONS>
10  11  8
10  17  8
12  18  8
12  19  8
13  22  8
14  20  8
14  21  8
15  23  8
15  24  8
18  20  8
19  21  8
22  26  8
23  25  8
24  27  8
25  28  8
27  28  8
32  33  8
32  35  8
33  34  8
34  36  8
35  37  8
36  37  8
5  11  8
5  13  8
5  6  8
6  17  8
8  11  8
8  26  8

$$$$
