135435475
  -OEChem-03202501192D

 37 39  0     0  0  0  0  0  0999 V2000
    6.3776    0.6165    0.0000 S   0  0  0  0  0  0  0  0  0  0  0  0
    2.8660   -2.4767    0.0000 O   0  0  0  0  0  0  0  0  0  0  0  0
    4.5981   -3.4767    0.0000 O   0  0  0  0  0  0  0  0  0  0  0  0
    4.8255    2.6869    0.0000 O   0  0  0  0  0  0  0  0  0  0  0  0
    6.5468    2.2257    0.0000 N   0  0  0  0  0  0  0  0  0  0  0  0
    8.0413    1.2552    0.0000 N   0  0  0  0  0  0  0  0  0  0  0  0
    4.5981   -0.4767    0.0000 C   0  0  0  0  0  0  0  0  0  0  0  0
    5.4641    1.0233    0.0000 C   0  0  0  0  0  0  0  0  0  0  0  0
    4.5981    0.5233    0.0000 C   0  0  0  0  0  0  0  0  0  0  0  0
    3.7320   -0.9767    0.0000 C   0  0  0  0  0  0  0  0  0  0  0  0
    5.4641   -0.9767    0.0000 C   0  0  0  0  0  0  0  0  0  0  0  0
    3.7320   -1.9767    0.0000 C   0  0  0  0  0  0  0  0  0  0  0  0
    5.5686    2.0178    0.0000 C   0  0  0  0  0  0  0  0  0  0  0  0
    7.0468    1.3597    0.0000 C   0  0  0  0  0  0  0  0  0  0  0  0
    4.5981   -2.4767    0.0000 C   0  0  0  0  0  0  0  0  0  0  0  0
    5.4641   -1.9767    0.0000 C   0  0  0  0  0  0  0  0  0  0  0  0
    8.6291    2.0642    0.0000 C   0  0  0  0  0  0  0  0  0  0  0  0
    9.6236    1.9596    0.0000 C   0  0  0  0  0  0  0  0  0  0  0  0
    8.2224    2.9777    0.0000 C   0  0  0  0  0  0  0  0  0  0  0  0
   10.2114    2.7687    0.0000 C   0  0  0  0  0  0  0  0  0  0  0  0
    8.8101    3.7867    0.0000 C   0  0  0  0  0  0  0  0  0  0  0  0
    9.8047    3.6822    0.0000 C   0  0  0  0  0  0  0  0  0  0  0  0
    2.0000   -1.9767    0.0000 C   0  0  0  0  0  0  0  0  0  0  0  0
    4.0611    0.8333    0.0000 H   0  0  0  0  0  0  0  0  0  0  0  0
    3.1951   -0.6667    0.0000 H   0  0  0  0  0  0  0  0  0  0  0  0
    6.0010   -0.6667    0.0000 H   0  0  0  0  0  0  0  0  0  0  0  0
    6.0010   -2.2867    0.0000 H   0  0  0  0  0  0  0  0  0  0  0  0
    6.7990    2.7921    0.0000 H   0  0  0  0  0  0  0  0  0  0  0  0
    9.8758    1.3932    0.0000 H   0  0  0  0  0  0  0  0  0  0  0  0
    7.6057    3.0425    0.0000 H   0  0  0  0  0  0  0  0  0  0  0  0
   10.8280    2.7038    0.0000 H   0  0  0  0  0  0  0  0  0  0  0  0
    8.5580    4.3531    0.0000 H   0  0  0  0  0  0  0  0  0  0  0  0
   10.1691    4.1838    0.0000 H   0  0  0  0  0  0  0  0  0  0  0  0
    5.1350   -3.7867    0.0000 H   0  0  0  0  0  0  0  0  0  0  0  0
    2.3100   -1.4398    0.0000 H   0  0  0  0  0  0  0  0  0  0  0  0
    1.4631   -1.6667    0.0000 H   0  0  0  0  0  0  0  0  0  0  0  0
    1.6900   -2.5137    0.0000 H   0  0  0  0  0  0  0  0  0  0  0  0
  1  8  1  0  0  0  0
  1 14  1  0  0  0  0
  2 12  1  0  0  0  0
  2 23  1  0  0  0  0
  3 15  1  0  0  0  0
  3 34  1  0  0  0  0
  4 13  2  0  0  0  0
  5 13  1  0  0  0  0
  5 14  1  0  0  0  0
  5 28  1  0  0  0  0
  6 14  2  0  0  0  0
  6 17  1  0  0  0  0
  7  9  1  0  0  0  0
  7 10  2  0  0  0  0
  7 11  1  0  0  0  0
  8  9  2  3  0  0  0
  8 13  1  0  0  0  0
  9 24  1  0  0  0  0
 10 12  1  0  0  0  0
 10 25  1  0  0  0  0
 11 16  2  0  0  0  0
 11 26  1  0  0  0  0
 12 15  2  0  0  0  0
 15 16  1  0  0  0  0
 16 27  1  0  0  0  0
 17 18  2  0  0  0  0
 17 19  1  0  0  0  0
 18 20  1  0  0  0  0
 18 29  1  0  0  0  0
 19 21  2  0  0  0  0
 19 30  1  0  0  0  0
 20 22  2  0  0  0  0
 20 31  1  0  0  0  0
 21 22  1  0  0  0  0
 21 32  1  0  0  0  0
 22 33  1  0  0  0  0
 23 35  1  0  0  0  0
 23 36  1  0  0  0  0
 23 37  1  0  0  0  0
M  END
> <PUBCHEM_COMPOUND_CID>
135435475

> <PUBCHEM_COMPOUND_CANONICALIZED>
1

> <PUBCHEM_CACTVS_COMPLEXITY>
500

> <PUBCHEM_CACTVS_HBOND_ACCEPTOR>
5

> <PUBCHEM_CACTVS_HBOND_DONOR>
2

> <PUBCHEM_CACTVS_ROTATABLE_BOND>
3

> <PUBCHEM_CACTVS_SUBSKEYS>
AAADccB7MABAAAAAAAAAAAAAAAAAAWAAAAAwYAAAAAAAAAABQAAAHgQQCAAADAyB2AIzxoLABgioAiVSdACCGAFgIhAJiAAG7MgNJiKGuZuAcCNkwBEL+YeQwBAOIAABAAAAQABAAAIAAACAAAAAAAAAAA==

> <PUBCHEM_IUPAC_OPENEYE_NAME>
5-[(4-hydroxy-3-methoxy-phenyl)methylene]-2-phenylimino-thiazolidin-4-one

> <PUBCHEM_IUPAC_CAS_NAME>
5-[(4-hydroxy-3-methoxyphenyl)methylidene]-2-phenylimino-4-thiazolidinone

> <PUBCHEM_IUPAC_NAME_MARKUP>
5-[(4-hydroxy-3-methoxyphenyl)methylidene]-2-phenylimino-1,3-thiazolidin-4-one

> <PUBCHEM_IUPAC_NAME>
5-[(4-hydroxy-3-methoxyphenyl)methylidene]-2-phenylimino-1,3-thiazolidin-4-one

> <PUBCHEM_IUPAC_SYSTEMATIC_NAME>
5-[(3-methoxy-4-oxidanyl-phenyl)methylidene]-2-phenylimino-1,3-thiazolidin-4-one

> <PUBCHEM_IUPAC_TRADITIONAL_NAME>
2-phenylimino-5-vanillylidene-thiazolidin-4-one

> <PUBCHEM_IUPAC_INCHI>
InChI=1S/C17H14N2O3S/c1-22-14-9-11(7-8-13(14)20)10-15-16(21)19-17(23-15)18-12-5-3-2-4-6-12/h2-10,20H,1H3,(H,18,19,21)

> <PUBCHEM_IUPAC_INCHIKEY>
JOIUJUJSHIHBDT-UHFFFAOYSA-N

> <PUBCHEM_XLOGP3_AA>
3.6

> <PUBCHEM_EXACT_MASS>
326.07251349

> <PUBCHEM_MOLECULAR_FORMULA>
C17H14N2O3S

> <PUBCHEM_MOLECULAR_WEIGHT>
326.4

> <PUBCHEM_SMILES>
COC1=C(C=CC(=C1)C=C2C(=O)NC(=NC3=CC=CC=C3)S2)O

> <PUBCHEM_OPENEYE_CAN_SMILES>
COC1=C(C=CC(=C1)C=C2C(=O)NC(=NC3=CC=CC=C3)S2)O

> <PUBCHEM_OPENEYE_ISO_SMILES>
COC1=C(C=CC(=C1)C=C2C(=O)NC(=NC3=CC=CC=C3)S2)O

> <PUBCHEM_CACTVS_TPSA>
96.2

> <PUBCHEM_MONOISOTOPIC_WEIGHT>
326.07251349

> <PUBCHEM_TOTAL_CHARGE>
0

> <PUBCHEM_HEAVY_ATOM_COUNT>
23

> <PUBCHEM_ATOM_DEF_STEREO_COUNT>
0

> <PUBCHEM_ATOM_UDEF_STEREO_COUNT>
0

> <PUBCHEM_BOND_DEF_STEREO_COUNT>
0

> <PUBCHEM_BOND_UDEF_STEREO_COUNT>
1

> <PUBCHEM_ISOTOPIC_ATOM_COUNT>
0

> <PUBCHEM_COMPONENT_COUNT>
1

> <PUBCHEM_CACTVS_TAUTO_COUNT>
-1

> <PUBCHEM_COORDINATE_TYPE>
1
5
255

> <PUBCHEM_BONDANNOTATIONS>
10  12  8
11  16  8
12  15  8
15  16  8
17  18  8
17  19  8
18  20  8
19  21  8
20  22  8
21  22  8
7  10  8
7  11  8
8  9  1

$$$$
