49830756
  -OEChem-03202501552D

 52 56  0     1  0  0  0  0  0999 V2000
    5.9422   -4.6310    0.0000 O   0  0  0  0  0  0  0  0  0  0  0  0
    5.9209    3.0384    0.0000 O   0  0  0  0  0  0  0  0  0  0  0  0
   10.1456    4.8138    0.0000 O   0  0  0  0  0  0  0  0  0  0  0  0
    4.6783   -2.3731    0.0000 N   0  0  0  0  0  0  0  0  0  0  0  0
    2.8660   -2.5684    0.0000 N   0  0  0  0  0  0  0  0  0  0  0  0
    2.0000   -1.0684    0.0000 N   0  0  0  0  0  0  0  0  0  0  0  0
    2.8660    0.4316    0.0000 N   0  0  0  0  0  0  0  0  0  0  0  0
    4.9889   -3.3236    0.0000 C   0  0  3  0  0  0  0  0  0  0  0  0
    4.4026   -4.1337    0.0000 C   0  0  0  0  0  0  0  0  0  0  0  0
    5.9405   -3.6310    0.0000 C   0  0  0  0  0  0  0  0  0  0  0  0
    4.9917   -4.9417    0.0000 C   0  0  0  0  0  0  0  0  0  0  0  0
    3.7320   -2.0684    0.0000 C   0  0  0  0  0  0  0  0  0  0  0  0
    5.2619   -1.5684    0.0000 C   0  0  0  0  0  0  0  0  0  0  0  0
    3.7320   -1.0684    0.0000 C   0  0  0  0  0  0  0  0  0  0  0  0
    4.6783   -0.7637    0.0000 C   0  0  0  0  0  0  0  0  0  0  0  0
    4.9889    0.1869    0.0000 C   0  0  0  0  0  0  0  0  0  0  0  0
    2.8660   -0.5684    0.0000 C   0  0  0  0  0  0  0  0  0  0  0  0
    5.9674    0.3931    0.0000 C   0  0  0  0  0  0  0  0  0  0  0  0
    4.3211    0.9312    0.0000 C   0  0  0  0  0  0  0  0  0  0  0  0
    2.0000   -2.0684    0.0000 C   0  0  0  0  0  0  0  0  0  0  0  0
    6.2781    1.3436    0.0000 C   0  0  0  0  0  0  0  0  0  0  0  0
    4.6318    1.8817    0.0000 C   0  0  0  0  0  0  0  0  0  0  0  0
    5.6103    2.0879    0.0000 C   0  0  0  0  0  0  0  0  0  0  0  0
    6.8994    3.2446    0.0000 C   0  0  0  0  0  0  0  0  0  0  0  0
    7.2101    4.1952    0.0000 C   0  0  0  0  0  0  0  0  0  0  0  0
    7.5673    2.5003    0.0000 C   0  0  0  0  0  0  0  0  0  0  0  0
    8.8564    3.6571    0.0000 C   0  0  0  0  0  0  0  0  0  0  0  0
    8.1886    4.4014    0.0000 C   0  0  0  0  0  0  0  0  0  0  0  0
    8.5458    2.7066    0.0000 C   0  0  0  0  0  0  0  0  0  0  0  0
    9.8349    3.8633    0.0000 C   0  0  0  0  0  0  0  0  0  0  0  0
    5.4266   -2.8845    0.0000 H   0  0  0  0  0  0  0  0  0  0  0  0
    3.9411   -3.7196    0.0000 H   0  0  0  0  0  0  0  0  0  0  0  0
    3.9425   -4.5493    0.0000 H   0  0  0  0  0  0  0  0  0  0  0  0
    6.5572   -3.6948    0.0000 H   0  0  0  0  0  0  0  0  0  0  0  0
    6.0684   -3.0243    0.0000 H   0  0  0  0  0  0  0  0  0  0  0  0
    4.4553   -5.2526    0.0000 H   0  0  0  0  0  0  0  0  0  0  0  0
    5.2449   -5.5076    0.0000 H   0  0  0  0  0  0  0  0  0  0  0  0
    5.8819   -1.5684    0.0000 H   0  0  0  0  0  0  0  0  0  0  0  0
    6.3815   -0.0684    0.0000 H   0  0  0  0  0  0  0  0  0  0  0  0
    3.7144    0.8033    0.0000 H   0  0  0  0  0  0  0  0  0  0  0  0
    1.4631   -2.3784    0.0000 H   0  0  0  0  0  0  0  0  0  0  0  0
    2.3291    0.7416    0.0000 H   0  0  0  0  0  0  0  0  0  0  0  0
    3.4030    0.7416    0.0000 H   0  0  0  0  0  0  0  0  0  0  0  0
    6.8848    1.4715    0.0000 H   0  0  0  0  0  0  0  0  0  0  0  0
    4.2177    2.3432    0.0000 H   0  0  0  0  0  0  0  0  0  0  0  0
    6.7960    4.6566    0.0000 H   0  0  0  0  0  0  0  0  0  0  0  0
    7.3747    1.9110    0.0000 H   0  0  0  0  0  0  0  0  0  0  0  0
    8.3812    4.9907    0.0000 H   0  0  0  0  0  0  0  0  0  0  0  0
    8.9598    2.2451    0.0000 H   0  0  0  0  0  0  0  0  0  0  0  0
    9.8555    3.2436    0.0000 H   0  0  0  0  0  0  0  0  0  0  0  0
   10.4488    3.7760    0.0000 H   0  0  0  0  0  0  0  0  0  0  0  0
   10.7523    4.9417    0.0000 H   0  0  0  0  0  0  0  0  0  0  0  0
  1 10  1  0  0  0  0
  1 11  1  0  0  0  0
  2 23  1  0  0  0  0
  2 24  1  0  0  0  0
  3 30  1  0  0  0  0
  3 52  1  0  0  0  0
  4  8  1  0  0  0  0
  4 12  1  0  0  0  0
  4 13  1  0  0  0  0
  5 12  2  0  0  0  0
  5 20  1  0  0  0  0
  6 17  1  0  0  0  0
  6 20  2  0  0  0  0
  7 17  1  0  0  0  0
  7 42  1  0  0  0  0
  7 43  1  0  0  0  0
  8  9  1  0  0  0  0
  8 10  1  0  0  0  0
  8 31  1  0  0  0  0
  9 11  1  0  0  0  0
  9 32  1  0  0  0  0
  9 33  1  0  0  0  0
 10 34  1  0  0  0  0
 10 35  1  0  0  0  0
 11 36  1  0  0  0  0
 11 37  1  0  0  0  0
 12 14  1  0  0  0  0
 13 15  2  0  0  0  0
 13 38  1  0  0  0  0
 14 15  1  0  0  0  0
 14 17  2  0  0  0  0
 15 16  1  0  0  0  0
 16 18  2  0  0  0  0
 16 19  1  0  0  0  0
 18 21  1  0  0  0  0
 18 39  1  0  0  0  0
 19 22  2  0  0  0  0
 19 40  1  0  0  0  0
 20 41  1  0  0  0  0
 21 23  2  0  0  0  0
 21 44  1  0  0  0  0
 22 23  1  0  0  0  0
 22 45  1  0  0  0  0
 24 25  2  0  0  0  0
 24 26  1  0  0  0  0
 25 28  1  0  0  0  0
 25 46  1  0  0  0  0
 26 29  2  0  0  0  0
 26 47  1  0  0  0  0
 27 28  2  0  0  0  0
 27 29  1  0  0  0  0
 27 30  1  0  0  0  0
 28 48  1  0  0  0  0
 29 49  1  0  0  0  0
 30 50  1  0  0  0  0
 30 51  1  0  0  0  0
M  END
> <PUBCHEM_COMPOUND_CID>
49830756

> <PUBCHEM_COMPOUND_CANONICALIZED>
1

> <PUBCHEM_CACTVS_COMPLEXITY>
551

> <PUBCHEM_CACTVS_HBOND_ACCEPTOR>
6

> <PUBCHEM_CACTVS_HBOND_DONOR>
2

> <PUBCHEM_CACTVS_ROTATABLE_BOND>
5

> <PUBCHEM_CACTVS_SUBSKEYS>
AAADceB7sAAAAAAAAAAAAAAAAAAAAWJAAAA8YIAAAAAAAFgB/AAAHgAQCAAADCzhmwY9tt9MFgCgAjJnZACCiCkxIKAJ2CAuTJiOPmLE+duHfCjuwBPY+CeQ4PwOoAAAAAAAAABAAAAAAAAAAAAAAAAAAA==

> <PUBCHEM_IUPAC_OPENEYE_NAME>
[4-[4-(4-amino-7-tetrahydrofuran-3-yl-pyrrolo[2,3-d]pyrimidin-5-yl)phenoxy]phenyl]methanol

> <PUBCHEM_IUPAC_CAS_NAME>
[4-[4-[4-amino-7-(3-oxolanyl)-5-pyrrolo[2,3-d]pyrimidinyl]phenoxy]phenyl]methanol

> <PUBCHEM_IUPAC_NAME_MARKUP>
[4-[4-[4-amino-7-(oxolan-3-yl)pyrrolo[2,3-d]pyrimidin-5-yl]phenoxy]phenyl]methanol

> <PUBCHEM_IUPAC_NAME>
[4-[4-[4-amino-7-(oxolan-3-yl)pyrrolo[2,3-d]pyrimidin-5-yl]phenoxy]phenyl]methanol

> <PUBCHEM_IUPAC_SYSTEMATIC_NAME>
[4-[4-[4-azanyl-7-(oxolan-3-yl)pyrrolo[2,3-d]pyrimidin-5-yl]phenoxy]phenyl]methanol

> <PUBCHEM_IUPAC_TRADITIONAL_NAME>
[4-[4-(4-amino-7-tetrahydrofuran-3-yl-pyrrolo[2,3-d]pyrimidin-5-yl)phenoxy]phenyl]methanol

> <PUBCHEM_IUPAC_INCHI>
InChI=1S/C23H22N4O3/c24-22-21-20(11-27(17-9-10-29-13-17)23(21)26-14-25-22)16-3-7-19(8-4-16)30-18-5-1-15(12-28)2-6-18/h1-8,11,14,17,28H,9-10,12-13H2,(H2,24,25,26)

> <PUBCHEM_IUPAC_INCHIKEY>
SBWCIJOOABLPME-UHFFFAOYSA-N

> <PUBCHEM_XLOGP3_AA>
2.5

> <PUBCHEM_EXACT_MASS>
402.16919058

> <PUBCHEM_MOLECULAR_FORMULA>
C23H22N4O3

> <PUBCHEM_MOLECULAR_WEIGHT>
402.4

> <PUBCHEM_SMILES>
C1COCC1N2C=C(C3=C(N=CN=C32)N)C4=CC=C(C=C4)OC5=CC=C(C=C5)CO

> <PUBCHEM_OPENEYE_CAN_SMILES>
C1COCC1N2C=C(C3=C(N=CN=C32)N)C4=CC=C(C=C4)OC5=CC=C(C=C5)CO

> <PUBCHEM_OPENEYE_ISO_SMILES>
C1COCC1N2C=C(C3=C(N=CN=C32)N)C4=CC=C(C=C4)OC5=CC=C(C=C5)CO

> <PUBCHEM_CACTVS_TPSA>
95.4

> <PUBCHEM_MONOISOTOPIC_WEIGHT>
402.16919058

> <PUBCHEM_TOTAL_CHARGE>
0

> <PUBCHEM_HEAVY_ATOM_COUNT>
30

> <PUBCHEM_ATOM_DEF_STEREO_COUNT>
0

> <PUBCHEM_ATOM_UDEF_STEREO_COUNT>
1

> <PUBCHEM_BOND_DEF_STEREO_COUNT>
0

> <PUBCHEM_BOND_UDEF_STEREO_COUNT>
0

> <PUBCHEM_ISOTOPIC_ATOM_COUNT>
0

> <PUBCHEM_COMPONENT_COUNT>
1

> <PUBCHEM_CACTVS_TAUTO_COUNT>
-1

> <PUBCHEM_COORDINATE_TYPE>
1
5
255

> <PUBCHEM_BONDANNOTATIONS>
12  14  8
13  15  8
14  15  8
14  17  8
16  18  8
16  19  8
18  21  8
19  22  8
21  23  8
22  23  8
24  25  8
24  26  8
25  28  8
26  29  8
27  28  8
27  29  8
4  12  8
4  13  8
8  4  3
5  12  8
5  20  8
6  17  8
6  20  8

$$$$
