11583459
  -OEChem-03202506102D

 63 69  0     0  0  0  0  0  0999 V2000
    3.4060   -3.1698    0.0000 N   0  0  0  0  0  0  0  0  0  0  0  0
    5.2772    0.9207    0.0000 N   0  0  0  0  0  0  0  0  0  0  0  0
    6.7498    0.2712    0.0000 N   0  0  0  0  0  0  0  0  0  0  0  0
    4.6559    2.8218    0.0000 N   0  0  0  0  0  0  0  0  0  0  0  0
    6.3022    3.3598    0.0000 N   0  0  0  0  0  0  0  0  0  0  0  0
   10.3449    1.2252    0.0000 N   0  0  0  0  0  0  0  0  0  0  0  0
    4.8037   -2.1469    0.0000 C   0  0  0  0  0  0  0  0  0  0  0  0
    5.3744   -0.8530    0.0000 C   0  0  0  0  0  0  0  0  0  0  0  0
    4.4421   -1.2146    0.0000 C   0  0  0  0  0  0  0  0  0  0  0  0
    5.7360   -1.7853    0.0000 C   0  0  0  0  0  0  0  0  0  0  0  0
    4.4001   -3.0619    0.0000 C   0  0  0  0  0  0  0  0  0  0  0  0
    5.7780    0.0620    0.0000 C   0  0  0  0  0  0  0  0  0  0  0  0
    2.6266   -2.5432    0.0000 C   0  0  0  0  0  0  0  0  0  0  0  0
    2.7793   -3.9492    0.0000 C   0  0  0  0  0  0  0  0  0  0  0  0
    2.0000   -3.3225    0.0000 C   0  0  0  0  0  0  0  0  0  0  0  0
    5.9451    1.6650    0.0000 C   0  0  0  0  0  0  0  0  0  0  0  0
    6.8528    1.2599    0.0000 C   0  0  0  0  0  0  0  0  0  0  0  0
    4.2987    1.1269    0.0000 C   0  0  0  0  0  0  0  0  0  0  0  0
    5.6344    2.6155    0.0000 C   0  0  0  0  0  0  0  0  0  0  0  0
    7.7189    1.7599    0.0000 C   0  0  0  0  0  0  0  0  0  0  0  0
    3.9881    2.0774    0.0000 C   0  0  0  0  0  0  0  0  0  0  0  0
    8.5849    1.2599    0.0000 C   0  0  0  0  0  0  0  0  0  0  0  0
    7.7189    2.7599    0.0000 C   0  0  0  0  0  0  0  0  0  0  0  0
    9.4509    1.7599    0.0000 C   0  0  0  0  0  0  0  0  0  0  0  0
    8.5849    3.2599    0.0000 C   0  0  0  0  0  0  0  0  0  0  0  0
    9.4509    2.7599    0.0000 C   0  0  0  0  0  0  0  0  0  0  0  0
   10.3449    3.2946    0.0000 C   0  0  0  0  0  0  0  0  0  0  0  0
   11.2509    1.7391    0.0000 C   0  0  0  0  0  0  0  0  0  0  0  0
   11.2509    2.7807    0.0000 C   0  0  0  0  0  0  0  0  0  0  0  0
   12.1150    1.2357    0.0000 C   0  0  0  0  0  0  0  0  0  0  0  0
   12.9830    1.7324    0.0000 C   0  0  0  0  0  0  0  0  0  0  0  0
   12.1112    0.2358    0.0000 C   0  0  0  0  0  0  0  0  0  0  0  0
   13.8471    1.2291    0.0000 C   0  0  0  0  0  0  0  0  0  0  0  0
   12.9753   -0.2676    0.0000 C   0  0  0  0  0  0  0  0  0  0  0  0
   13.8432    0.2291    0.0000 C   0  0  0  0  0  0  0  0  0  0  0  0
    4.1838   -2.1328    0.0000 H   0  0  0  0  0  0  0  0  0  0  0  0
    4.9461   -0.4047    0.0000 H   0  0  0  0  0  0  0  0  0  0  0  0
    4.2179   -0.6365    0.0000 H   0  0  0  0  0  0  0  0  0  0  0  0
    3.8640   -1.4388    0.0000 H   0  0  0  0  0  0  0  0  0  0  0  0
    5.9602   -2.3634    0.0000 H   0  0  0  0  0  0  0  0  0  0  0  0
    6.3140   -1.5611    0.0000 H   0  0  0  0  0  0  0  0  0  0  0  0
    4.3590   -3.6805    0.0000 H   0  0  0  0  0  0  0  0  0  0  0  0
    5.0022   -3.2098    0.0000 H   0  0  0  0  0  0  0  0  0  0  0  0
    3.0151   -2.0600    0.0000 H   0  0  0  0  0  0  0  0  0  0  0  0
    2.1434   -2.1547    0.0000 H   0  0  0  0  0  0  0  0  0  0  0  0
    2.3908   -4.4323    0.0000 H   0  0  0  0  0  0  0  0  0  0  0  0
    3.2625   -4.3377    0.0000 H   0  0  0  0  0  0  0  0  0  0  0  0
    1.5168   -2.9340    0.0000 H   0  0  0  0  0  0  0  0  0  0  0  0
    1.6115   -3.8057    0.0000 H   0  0  0  0  0  0  0  0  0  0  0  0
    3.8846    0.6655    0.0000 H   0  0  0  0  0  0  0  0  0  0  0  0
    3.3814    2.2053    0.0000 H   0  0  0  0  0  0  0  0  0  0  0  0
    8.5849    0.6399    0.0000 H   0  0  0  0  0  0  0  0  0  0  0  0
    7.1819    3.0699    0.0000 H   0  0  0  0  0  0  0  0  0  0  0  0
    6.1096    3.9492    0.0000 H   0  0  0  0  0  0  0  0  0  0  0  0
    6.9089    3.2320    0.0000 H   0  0  0  0  0  0  0  0  0  0  0  0
    8.5849    3.8799    0.0000 H   0  0  0  0  0  0  0  0  0  0  0  0
   10.3377    3.9145    0.0000 H   0  0  0  0  0  0  0  0  0  0  0  0
   11.7867    3.0928    0.0000 H   0  0  0  0  0  0  0  0  0  0  0  0
   12.9854    2.3524    0.0000 H   0  0  0  0  0  0  0  0  0  0  0  0
   11.5730   -0.0722    0.0000 H   0  0  0  0  0  0  0  0  0  0  0  0
   14.3852    1.5370    0.0000 H   0  0  0  0  0  0  0  0  0  0  0  0
   12.9729   -0.8876    0.0000 H   0  0  0  0  0  0  0  0  0  0  0  0
   14.3790   -0.0830    0.0000 H   0  0  0  0  0  0  0  0  0  0  0  0
  1 11  1  0  0  0  0
  1 13  1  0  0  0  0
  1 14  1  0  0  0  0
  2 12  1  0  0  0  0
  2 16  1  0  0  0  0
  2 18  1  0  0  0  0
  3 12  2  0  0  0  0
  3 17  1  0  0  0  0
  4 19  2  0  0  0  0
  4 21  1  0  0  0  0
  5 19  1  0  0  0  0
  5 54  1  0  0  0  0
  5 55  1  0  0  0  0
  6 24  1  0  0  0  0
  6 28  2  0  0  0  0
  7  9  1  0  0  0  0
  7 10  1  0  0  0  0
  7 11  1  0  0  0  0
  7 36  1  0  0  0  0
  8  9  1  0  0  0  0
  8 10  1  0  0  0  0
  8 12  1  0  0  0  0
  8 37  1  0  0  0  0
  9 38  1  0  0  0  0
  9 39  1  0  0  0  0
 10 40  1  0  0  0  0
 10 41  1  0  0  0  0
 11 42  1  0  0  0  0
 11 43  1  0  0  0  0
 13 15  1  0  0  0  0
 13 44  1  0  0  0  0
 13 45  1  0  0  0  0
 14 15  1  0  0  0  0
 14 46  1  0  0  0  0
 14 47  1  0  0  0  0
 15 48  1  0  0  0  0
 15 49  1  0  0  0  0
 16 17  2  0  0  0  0
 16 19  1  0  0  0  0
 17 20  1  0  0  0  0
 18 21  2  0  0  0  0
 18 50  1  0  0  0  0
 20 22  2  0  0  0  0
 20 23  1  0  0  0  0
 21 51  1  0  0  0  0
 22 24  1  0  0  0  0
 22 52  1  0  0  0  0
 23 25  2  0  0  0  0
 23 53  1  0  0  0  0
 24 26  2  0  0  0  0
 25 26  1  0  0  0  0
 25 56  1  0  0  0  0
 26 27  1  0  0  0  0
 27 29  2  0  0  0  0
 27 57  1  0  0  0  0
 28 29  1  0  0  0  0
 28 30  1  0  0  0  0
 29 58  1  0  0  0  0
 30 31  2  0  0  0  0
 30 32  1  0  0  0  0
 31 33  1  0  0  0  0
 31 59  1  0  0  0  0
 32 34  2  0  0  0  0
 32 60  1  0  0  0  0
 33 35  2  0  0  0  0
 33 61  1  0  0  0  0
 34 35  1  0  0  0  0
 34 62  1  0  0  0  0
 35 63  1  0  0  0  0
M  END
> <PUBCHEM_COMPOUND_CID>
11583459

> <PUBCHEM_COMPOUND_CANONICALIZED>
1

> <PUBCHEM_CACTVS_COMPLEXITY>
716

> <PUBCHEM_CACTVS_HBOND_ACCEPTOR>
5

> <PUBCHEM_CACTVS_HBOND_DONOR>
1

> <PUBCHEM_CACTVS_ROTATABLE_BOND>
5

> <PUBCHEM_CACTVS_SUBSKEYS>
AAADceB7gAAAAAAAAAAAAAAAAAB4gWAAAAA8eIEAAAAAAFix/gAAHAAQAAAADQjBHwQ98PdMGACgAzZnZACCgC0xEqAJ2CA4dJiIaOLA2dGUJAhogALIyCcQgMAOQAAAQAACAACAAACAAAQAAAAAAAAAAA==

> <PUBCHEM_IUPAC_OPENEYE_NAME>
3-[3-(azetidin-1-ylmethyl)cyclobutyl]-1-(2-phenyl-7-quinolyl)imidazo[1,5-a]pyrazin-8-amine

> <PUBCHEM_IUPAC_CAS_NAME>
3-[3-(1-azetidinylmethyl)cyclobutyl]-1-(2-phenyl-7-quinolinyl)-8-imidazo[1,5-a]pyrazinamine

> <PUBCHEM_IUPAC_NAME_MARKUP>
3-[3-(azetidin-1-ylmethyl)cyclobutyl]-1-(2-phenylquinolin-7-yl)imidazo[1,5-a]pyrazin-8-amine

> <PUBCHEM_IUPAC_NAME>
3-[3-(azetidin-1-ylmethyl)cyclobutyl]-1-(2-phenylquinolin-7-yl)imidazo[1,5-a]pyrazin-8-amine

> <PUBCHEM_IUPAC_SYSTEMATIC_NAME>
3-[3-(azetidin-1-ylmethyl)cyclobutyl]-1-(2-phenylquinolin-7-yl)imidazo[1,5-a]pyrazin-8-amine

> <PUBCHEM_IUPAC_TRADITIONAL_NAME>
[3-[3-(azetidin-1-ylmethyl)cyclobutyl]-1-(2-phenyl-7-quinolyl)imidazo[1,5-a]pyrazin-8-yl]amine

> <PUBCHEM_IUPAC_INCHI>
InChI=1S/C29H28N6/c30-28-27-26(22-8-7-21-9-10-24(32-25(21)17-22)20-5-2-1-3-6-20)33-29(35(27)14-11-31-28)23-15-19(16-23)18-34-12-4-13-34/h1-3,5-11,14,17,19,23H,4,12-13,15-16,18H2,(H2,30,31)

> <PUBCHEM_IUPAC_INCHIKEY>
FUGZYLOFWXVFQU-UHFFFAOYSA-N

> <PUBCHEM_XLOGP3_AA>
5

> <PUBCHEM_EXACT_MASS>
460.23754492

> <PUBCHEM_MOLECULAR_FORMULA>
C29H28N6

> <PUBCHEM_MOLECULAR_WEIGHT>
460.6

> <PUBCHEM_SMILES>
C1CN(C1)CC2CC(C2)C3=NC(=C4N3C=CN=C4N)C5=CC6=C(C=C5)C=CC(=N6)C7=CC=CC=C7

> <PUBCHEM_OPENEYE_CAN_SMILES>
C1CN(C1)CC2CC(C2)C3=NC(=C4N3C=CN=C4N)C5=CC6=C(C=C5)C=CC(=N6)C7=CC=CC=C7

> <PUBCHEM_OPENEYE_ISO_SMILES>
C1CN(C1)CC2CC(C2)C3=NC(=C4N3C=CN=C4N)C5=CC6=C(C=C5)C=CC(=N6)C7=CC=CC=C7

> <PUBCHEM_CACTVS_TPSA>
72.3

> <PUBCHEM_MONOISOTOPIC_WEIGHT>
460.23754492

> <PUBCHEM_TOTAL_CHARGE>
0

> <PUBCHEM_HEAVY_ATOM_COUNT>
35

> <PUBCHEM_ATOM_DEF_STEREO_COUNT>
0

> <PUBCHEM_ATOM_UDEF_STEREO_COUNT>
0

> <PUBCHEM_BOND_DEF_STEREO_COUNT>
0

> <PUBCHEM_BOND_UDEF_STEREO_COUNT>
0

> <PUBCHEM_ISOTOPIC_ATOM_COUNT>
0

> <PUBCHEM_COMPONENT_COUNT>
1

> <PUBCHEM_CACTVS_TAUTO_COUNT>
-1

> <PUBCHEM_COORDINATE_TYPE>
1
5
255

> <PUBCHEM_BONDANNOTATIONS>
16  17  8
16  19  8
18  21  8
2  12  8
2  16  8
2  18  8
20  22  8
20  23  8
22  24  8
23  25  8
24  26  8
25  26  8
26  27  8
27  29  8
28  29  8
3  12  8
3  17  8
30  31  8
30  32  8
31  33  8
32  34  8
33  35  8
34  35  8
4  19  8
4  21  8
6  24  8
6  28  8

$$$$
