11632737
  -OEChem-03202505542D

 45 48  0     0  0  0  0  0  0999 V2000
    8.1097   -0.8945    0.0000 S   0  0  0  0  0  0  0  0  0  0  0  0
    2.0000    0.6987    0.0000 F   0  0  0  0  0  0  0  0  0  0  0  0
    3.7320   -2.3013    0.0000 F   0  0  0  0  0  0  0  0  0  0  0  0
    2.8660    2.1987    0.0000 O   0  0  0  0  0  0  0  0  0  0  0  0
    4.5981    2.1987    0.0000 N   0  0  0  0  0  0  0  0  0  0  0  0
    5.4641   -1.3013    0.0000 N   0  0  0  0  0  0  0  0  0  0  0  0
    8.2788   -2.5037    0.0000 N   0  0  0  0  0  0  0  0  0  0  0  0
    9.7734   -1.5332    0.0000 N   0  0  0  0  0  0  0  0  0  0  0  0
    9.9544   -3.2557    0.0000 N   0  0  0  0  0  0  0  0  0  0  0  0
    4.5981    3.1987    0.0000 C   0  0  0  0  0  0  0  0  0  0  0  0
    5.0981    4.0647    0.0000 C   0  0  0  0  0  0  0  0  0  0  0  0
    4.0981    4.0647    0.0000 C   0  0  0  0  0  0  0  0  0  0  0  0
    3.7320    1.6987    0.0000 C   0  0  0  0  0  0  0  0  0  0  0  0
    3.7320    0.6987    0.0000 C   0  0  0  0  0  0  0  0  0  0  0  0
    4.5981    0.1987    0.0000 C   0  0  0  0  0  0  0  0  0  0  0  0
    2.8660    0.1987    0.0000 C   0  0  0  0  0  0  0  0  0  0  0  0
    4.5981   -0.8013    0.0000 C   0  0  0  0  0  0  0  0  0  0  0  0
    2.8660   -0.8013    0.0000 C   0  0  0  0  0  0  0  0  0  0  0  0
    3.7320   -1.3013    0.0000 C   0  0  0  0  0  0  0  0  0  0  0  0
    6.3301   -0.8013    0.0000 C   0  0  0  0  0  0  0  0  0  0  0  0
    7.1962   -1.3013    0.0000 C   0  0  0  0  0  0  0  0  0  0  0  0
    7.3007   -2.2958    0.0000 C   0  0  0  0  0  0  0  0  0  0  0  0
    8.7788   -1.6377    0.0000 C   0  0  0  0  0  0  0  0  0  0  0  0
   10.3611   -2.3422    0.0000 C   0  0  0  0  0  0  0  0  0  0  0  0
   11.3557   -2.2376    0.0000 C   0  0  0  0  0  0  0  0  0  0  0  0
   11.9434   -3.0467    0.0000 C   0  0  0  0  0  0  0  0  0  0  0  0
   11.5367   -3.9602    0.0000 C   0  0  0  0  0  0  0  0  0  0  0  0
   10.5422   -4.0647    0.0000 C   0  0  0  0  0  0  0  0  0  0  0  0
    5.1970    3.0382    0.0000 H   0  0  0  0  0  0  0  0  0  0  0  0
    5.6807    3.8527    0.0000 H   0  0  0  0  0  0  0  0  0  0  0  0
    5.2057    4.6753    0.0000 H   0  0  0  0  0  0  0  0  0  0  0  0
    3.9904    4.6753    0.0000 H   0  0  0  0  0  0  0  0  0  0  0  0
    3.5155    3.8527    0.0000 H   0  0  0  0  0  0  0  0  0  0  0  0
    5.1350    1.8887    0.0000 H   0  0  0  0  0  0  0  0  0  0  0  0
    5.1350    0.5087    0.0000 H   0  0  0  0  0  0  0  0  0  0  0  0
    2.3291   -1.1113    0.0000 H   0  0  0  0  0  0  0  0  0  0  0  0
    5.4641   -1.9213    0.0000 H   0  0  0  0  0  0  0  0  0  0  0  0
    6.7287   -0.3263    0.0000 H   0  0  0  0  0  0  0  0  0  0  0  0
    5.9316   -0.3263    0.0000 H   0  0  0  0  0  0  0  0  0  0  0  0
    6.8399   -2.7107    0.0000 H   0  0  0  0  0  0  0  0  0  0  0  0
   10.0255   -0.9668    0.0000 H   0  0  0  0  0  0  0  0  0  0  0  0
   11.6078   -1.6712    0.0000 H   0  0  0  0  0  0  0  0  0  0  0  0
   12.5600   -2.9819    0.0000 H   0  0  0  0  0  0  0  0  0  0  0  0
   11.9011   -4.4618    0.0000 H   0  0  0  0  0  0  0  0  0  0  0  0
   10.2900   -4.6311    0.0000 H   0  0  0  0  0  0  0  0  0  0  0  0
  1 21  1  0  0  0  0
  1 23  1  0  0  0  0
  2 16  1  0  0  0  0
  3 19  1  0  0  0  0
  4 13  2  0  0  0  0
  5 10  1  0  0  0  0
  5 13  1  0  0  0  0
  5 34  1  0  0  0  0
  6 17  1  0  0  0  0
  6 20  1  0  0  0  0
  6 37  1  0  0  0  0
  7 22  1  0  0  0  0
  7 23  2  0  0  0  0
  8 23  1  0  0  0  0
  8 24  1  0  0  0  0
  8 41  1  0  0  0  0
  9 24  1  0  0  0  0
  9 28  2  0  0  0  0
 10 11  1  0  0  0  0
 10 12  1  0  0  0  0
 10 29  1  0  0  0  0
 11 12  1  0  0  0  0
 11 30  1  0  0  0  0
 11 31  1  0  0  0  0
 12 32  1  0  0  0  0
 12 33  1  0  0  0  0
 13 14  1  0  0  0  0
 14 15  2  0  0  0  0
 14 16  1  0  0  0  0
 15 17  1  0  0  0  0
 15 35  1  0  0  0  0
 16 18  2  0  0  0  0
 17 19  2  0  0  0  0
 18 19  1  0  0  0  0
 18 36  1  0  0  0  0
 20 21  1  0  0  0  0
 20 38  1  0  0  0  0
 20 39  1  0  0  0  0
 21 22  2  0  0  0  0
 22 40  1  0  0  0  0
 24 25  2  0  0  0  0
 25 26  1  0  0  0  0
 25 42  1  0  0  0  0
 26 27  2  0  0  0  0
 26 43  1  0  0  0  0
 27 28  1  0  0  0  0
 27 44  1  0  0  0  0
 28 45  1  0  0  0  0
M  END
> <PUBCHEM_COMPOUND_CID>
11632737

> <PUBCHEM_COMPOUND_CANONICALIZED>
1

> <PUBCHEM_CACTVS_COMPLEXITY>
540

> <PUBCHEM_CACTVS_HBOND_ACCEPTOR>
8

> <PUBCHEM_CACTVS_HBOND_DONOR>
3

> <PUBCHEM_CACTVS_ROTATABLE_BOND>
7

> <PUBCHEM_CACTVS_SUBSKEYS>
AAADceB7oYBAAAAAAAAAAAAAGAAAAWAAAAA8QAAAAAAAAAAB8AAAHwQQAAAADCjB2gw98ZLIEAisAjd3dACC8Kl1CjlJ2K04ZNiIIPLA3ZGEIQholgLIyacciACOAAAAQAAAAAAAAACAAAAAAAAAAAAAAA==

> <PUBCHEM_IUPAC_OPENEYE_NAME>
N-cyclopropyl-2,4-difluoro-5-[[2-(2-pyridylamino)thiazol-5-yl]methylamino]benzamide

> <PUBCHEM_IUPAC_CAS_NAME>
N-cyclopropyl-2,4-difluoro-5-[[2-(2-pyridinylamino)-5-thiazolyl]methylamino]benzamide

> <PUBCHEM_IUPAC_NAME_MARKUP>
<I>N</I>-cyclopropyl-2,4-difluoro-5-[[2-(pyridin-2-ylamino)-1,3-thiazol-5-yl]methylamino]benzamide

> <PUBCHEM_IUPAC_NAME>
N-cyclopropyl-2,4-difluoro-5-[[2-(pyridin-2-ylamino)-1,3-thiazol-5-yl]methylamino]benzamide

> <PUBCHEM_IUPAC_SYSTEMATIC_NAME>
N-cyclopropyl-2,4-bis(fluoranyl)-5-[[2-(pyridin-2-ylamino)-1,3-thiazol-5-yl]methylamino]benzamide

> <PUBCHEM_IUPAC_TRADITIONAL_NAME>
N-cyclopropyl-2,4-difluoro-5-[[2-(2-pyridylamino)thiazol-5-yl]methylamino]benzamide

> <PUBCHEM_IUPAC_INCHI>
InChI=1S/C19H17F2N5OS/c20-14-8-15(21)16(7-13(14)18(27)25-11-4-5-11)23-9-12-10-24-19(28-12)26-17-3-1-2-6-22-17/h1-3,6-8,10-11,23H,4-5,9H2,(H,25,27)(H,22,24,26)

> <PUBCHEM_IUPAC_INCHIKEY>
CUPLTRAPYIXFAX-UHFFFAOYSA-N

> <PUBCHEM_XLOGP3_AA>
3.6

> <PUBCHEM_EXACT_MASS>
401.11218768

> <PUBCHEM_MOLECULAR_FORMULA>
C19H17F2N5OS

> <PUBCHEM_MOLECULAR_WEIGHT>
401.4

> <PUBCHEM_SMILES>
C1CC1NC(=O)C2=CC(=C(C=C2F)F)NCC3=CN=C(S3)NC4=CC=CC=N4

> <PUBCHEM_OPENEYE_CAN_SMILES>
C1CC1NC(=O)C2=CC(=C(C=C2F)F)NCC3=CN=C(S3)NC4=CC=CC=N4

> <PUBCHEM_OPENEYE_ISO_SMILES>
C1CC1NC(=O)C2=CC(=C(C=C2F)F)NCC3=CN=C(S3)NC4=CC=CC=N4

> <PUBCHEM_CACTVS_TPSA>
107

> <PUBCHEM_MONOISOTOPIC_WEIGHT>
401.11218768

> <PUBCHEM_TOTAL_CHARGE>
0

> <PUBCHEM_HEAVY_ATOM_COUNT>
28

> <PUBCHEM_ATOM_DEF_STEREO_COUNT>
0

> <PUBCHEM_ATOM_UDEF_STEREO_COUNT>
0

> <PUBCHEM_BOND_DEF_STEREO_COUNT>
0

> <PUBCHEM_BOND_UDEF_STEREO_COUNT>
0

> <PUBCHEM_ISOTOPIC_ATOM_COUNT>
0

> <PUBCHEM_COMPONENT_COUNT>
1

> <PUBCHEM_CACTVS_TAUTO_COUNT>
-1

> <PUBCHEM_COORDINATE_TYPE>
1
5
255

> <PUBCHEM_BONDANNOTATIONS>
1  21  8
1  23  8
14  15  8
14  16  8
15  17  8
16  18  8
17  19  8
18  19  8
21  22  8
24  25  8
25  26  8
26  27  8
27  28  8
7  22  8
7  23  8
9  24  8
9  28  8

$$$$
