45139989
  -OEChem-03202507102D

 50 53  0     0  0  0  0  0  0999 V2000
   10.7179    3.0700    0.0000 O   0  0  0  0  0  0  0  0  0  0  0  0
    4.0604   -4.5155    0.0000 O   0  0  0  0  0  0  0  0  0  0  0  0
    8.9859    3.0634    0.0000 N   0  0  0  0  0  0  0  0  0  0  0  0
    6.3936    1.5534    0.0000 N   0  0  0  0  0  0  0  0  0  0  0  0
    3.7032   -1.2112    0.0000 N   0  0  0  0  0  0  0  0  0  0  0  0
    5.4994    0.0256    0.0000 N   0  0  0  0  0  0  0  0  0  0  0  0
    7.2995    0.0326    0.0000 N   0  0  0  0  0  0  0  0  0  0  0  0
    3.1196   -2.0159    0.0000 N   0  0  0  0  0  0  0  0  0  0  0  0
    2.4141   -3.9774    0.0000 N   0  0  0  0  0  0  0  0  0  0  0  0
    7.2577    2.0567    0.0000 C   0  0  0  0  0  0  0  0  0  0  0  0
    7.2538    3.0567    0.0000 C   0  0  0  0  0  0  0  0  0  0  0  0
    8.1256    1.5600    0.0000 C   0  0  0  0  0  0  0  0  0  0  0  0
    8.1179    3.5600    0.0000 C   0  0  0  0  0  0  0  0  0  0  0  0
    8.9897    2.0634    0.0000 C   0  0  0  0  0  0  0  0  0  0  0  0
    5.5155   -3.0159    0.0000 C   0  0  0  0  0  0  0  0  0  0  0  0
    6.3815   -2.5159    0.0000 C   0  0  0  0  0  0  0  0  0  0  0  0
    4.6494   -1.5159    0.0000 C   0  0  0  0  0  0  0  0  0  0  0  0
    4.6494   -2.5159    0.0000 C   0  0  0  0  0  0  0  0  0  0  0  0
    5.5155   -1.0159    0.0000 C   0  0  0  0  0  0  0  0  0  0  0  0
    6.3815   -1.5159    0.0000 C   0  0  0  0  0  0  0  0  0  0  0  0
    6.3974    0.5534    0.0000 C   0  0  0  0  0  0  0  0  0  0  0  0
    9.8500    3.5667    0.0000 C   0  0  0  0  0  0  0  0  0  0  0  0
    3.7032   -2.8206    0.0000 C   0  0  0  0  0  0  0  0  0  0  0  0
    7.2915   -1.0090    0.0000 C   0  0  0  0  0  0  0  0  0  0  0  0
    9.8461    4.5667    0.0000 C   0  0  0  0  0  0  0  0  0  0  0  0
    3.3926   -0.2606    0.0000 C   0  0  0  0  0  0  0  0  0  0  0  0
    3.3926   -3.7712    0.0000 C   0  0  0  0  0  0  0  0  0  0  0  0
    7.2601    1.4367    0.0000 H   0  0  0  0  0  0  0  0  0  0  0  0
    7.0395    3.6385    0.0000 H   0  0  0  0  0  0  0  0  0  0  0  0
    6.6437    2.9467    0.0000 H   0  0  0  0  0  0  0  0  0  0  0  0
    7.7289    1.0836    0.0000 H   0  0  0  0  0  0  0  0  0  0  0  0
    8.5260    1.0866    0.0000 H   0  0  0  0  0  0  0  0  0  0  0  0
    8.5146    4.0365    0.0000 H   0  0  0  0  0  0  0  0  0  0  0  0
    7.7176    4.0334    0.0000 H   0  0  0  0  0  0  0  0  0  0  0  0
    9.2040    1.4816    0.0000 H   0  0  0  0  0  0  0  0  0  0  0  0
    9.5999    2.1734    0.0000 H   0  0  0  0  0  0  0  0  0  0  0  0
    5.8555    1.8613    0.0000 H   0  0  0  0  0  0  0  0  0  0  0  0
    5.1170   -3.4908    0.0000 H   0  0  0  0  0  0  0  0  0  0  0  0
    5.9140   -3.4908    0.0000 H   0  0  0  0  0  0  0  0  0  0  0  0
    6.5936   -3.0985    0.0000 H   0  0  0  0  0  0  0  0  0  0  0  0
    6.9921   -2.4082    0.0000 H   0  0  0  0  0  0  0  0  0  0  0  0
    7.8248   -1.3252    0.0000 H   0  0  0  0  0  0  0  0  0  0  0  0
   10.4661    4.5691    0.0000 H   0  0  0  0  0  0  0  0  0  0  0  0
    9.8437    5.1867    0.0000 H   0  0  0  0  0  0  0  0  0  0  0  0
    9.2261    4.5643    0.0000 H   0  0  0  0  0  0  0  0  0  0  0  0
    3.9819   -0.0680    0.0000 H   0  0  0  0  0  0  0  0  0  0  0  0
    3.2000    0.3287    0.0000 H   0  0  0  0  0  0  0  0  0  0  0  0
    2.8032   -0.4533    0.0000 H   0  0  0  0  0  0  0  0  0  0  0  0
    2.2214   -4.5667    0.0000 H   0  0  0  0  0  0  0  0  0  0  0  0
    2.0000   -3.5159    0.0000 H   0  0  0  0  0  0  0  0  0  0  0  0
  1 22  2  0  0  0  0
  2 27  2  0  0  0  0
  3 13  1  0  0  0  0
  3 14  1  0  0  0  0
  3 22  1  0  0  0  0
  4 10  1  0  0  0  0
  4 21  1  0  0  0  0
  4 37  1  0  0  0  0
  5  8  1  0  0  0  0
  5 17  1  0  0  0  0
  5 26  1  0  0  0  0
  6 19  2  0  0  0  0
  6 21  1  0  0  0  0
  7 21  2  0  0  0  0
  7 24  1  0  0  0  0
  8 23  2  0  0  0  0
  9 27  1  0  0  0  0
  9 49  1  0  0  0  0
  9 50  1  0  0  0  0
 10 11  1  0  0  0  0
 10 12  1  0  0  0  0
 10 28  1  0  0  0  0
 11 13  1  0  0  0  0
 11 29  1  0  0  0  0
 11 30  1  0  0  0  0
 12 14  1  0  0  0  0
 12 31  1  0  0  0  0
 12 32  1  0  0  0  0
 13 33  1  0  0  0  0
 13 34  1  0  0  0  0
 14 35  1  0  0  0  0
 14 36  1  0  0  0  0
 15 16  1  0  0  0  0
 15 18  1  0  0  0  0
 15 38  1  0  0  0  0
 15 39  1  0  0  0  0
 16 20  1  0  0  0  0
 16 40  1  0  0  0  0
 16 41  1  0  0  0  0
 17 18  2  0  0  0  0
 17 19  1  0  0  0  0
 18 23  1  0  0  0  0
 19 20  1  0  0  0  0
 20 24  2  0  0  0  0
 22 25  1  0  0  0  0
 23 27  1  0  0  0  0
 24 42  1  0  0  0  0
 25 43  1  0  0  0  0
 25 44  1  0  0  0  0
 25 45  1  0  0  0  0
 26 46  1  0  0  0  0
 26 47  1  0  0  0  0
 26 48  1  0  0  0  0
M  END
> <PUBCHEM_COMPOUND_CID>
45139989

> <PUBCHEM_COMPOUND_CANONICALIZED>
1

> <PUBCHEM_CACTVS_COMPLEXITY>
580

> <PUBCHEM_CACTVS_HBOND_ACCEPTOR>
6

> <PUBCHEM_CACTVS_HBOND_DONOR>
2

> <PUBCHEM_CACTVS_ROTATABLE_BOND>
3

> <PUBCHEM_CACTVS_SUBSKEYS>
AAADceB7sAAAAAAAAAAAAAAAAAAAAWAAAAA8WIAAAAAAAFix4AAAHgAYAAAADCjBngQvkJfIEACqAxV3dACShCk3gKAR2KGoRNiIaLLA3dGUpQhongLIySccicCeAAAAAAAAAACAAACAAAQAQAAAAAAAAA==

> <PUBCHEM_IUPAC_OPENEYE_NAME>
8-[(1-acetyl-4-piperidyl)amino]-1-methyl-4,5-dihydropyrazolo[4,3-h]quinazoline-3-carboxamide

> <PUBCHEM_IUPAC_CAS_NAME>
8-[(1-acetyl-4-piperidinyl)amino]-1-methyl-4,5-dihydropyrazolo[4,3-h]quinazoline-3-carboxamide

> <PUBCHEM_IUPAC_NAME_MARKUP>
8-[(1-acetylpiperidin-4-yl)amino]-1-methyl-4,5-dihydropyrazolo[4,3-h]quinazoline-3-carboxamide

> <PUBCHEM_IUPAC_NAME>
8-[(1-acetylpiperidin-4-yl)amino]-1-methyl-4,5-dihydropyrazolo[4,3-h]quinazoline-3-carboxamide

> <PUBCHEM_IUPAC_SYSTEMATIC_NAME>
8-[(1-ethanoylpiperidin-4-yl)amino]-1-methyl-4,5-dihydropyrazolo[4,3-h]quinazoline-3-carboxamide

> <PUBCHEM_IUPAC_TRADITIONAL_NAME>
8-[(1-acetyl-4-piperidyl)amino]-1-methyl-4,5-dihydropyrazolo[4,3-h]quinazoline-3-carboxamide

> <PUBCHEM_IUPAC_INCHI>
InChI=1S/C18H23N7O2/c1-10(26)25-7-5-12(6-8-25)21-18-20-9-11-3-4-13-15(17(19)27)23-24(2)16(13)14(11)22-18/h9,12H,3-8H2,1-2H3,(H2,19,27)(H,20,21,22)

> <PUBCHEM_IUPAC_INCHIKEY>
CQWBHMMWZICZRH-UHFFFAOYSA-N

> <PUBCHEM_XLOGP3_AA>
0.1

> <PUBCHEM_EXACT_MASS>
369.19132300

> <PUBCHEM_MOLECULAR_FORMULA>
C18H23N7O2

> <PUBCHEM_MOLECULAR_WEIGHT>
369.4

> <PUBCHEM_SMILES>
CC(=O)N1CCC(CC1)NC2=NC=C3CCC4=C(C3=N2)N(N=C4C(=O)N)C

> <PUBCHEM_OPENEYE_CAN_SMILES>
CC(=O)N1CCC(CC1)NC2=NC=C3CCC4=C(C3=N2)N(N=C4C(=O)N)C

> <PUBCHEM_OPENEYE_ISO_SMILES>
CC(=O)N1CCC(CC1)NC2=NC=C3CCC4=C(C3=N2)N(N=C4C(=O)N)C

> <PUBCHEM_CACTVS_TPSA>
119

> <PUBCHEM_MONOISOTOPIC_WEIGHT>
369.19132300

> <PUBCHEM_TOTAL_CHARGE>
0

> <PUBCHEM_HEAVY_ATOM_COUNT>
27

> <PUBCHEM_ATOM_DEF_STEREO_COUNT>
0

> <PUBCHEM_ATOM_UDEF_STEREO_COUNT>
0

> <PUBCHEM_BOND_DEF_STEREO_COUNT>
0

> <PUBCHEM_BOND_UDEF_STEREO_COUNT>
0

> <PUBCHEM_ISOTOPIC_ATOM_COUNT>
0

> <PUBCHEM_COMPONENT_COUNT>
1

> <PUBCHEM_CACTVS_TAUTO_COUNT>
-1

> <PUBCHEM_COORDINATE_TYPE>
1
5
255

> <PUBCHEM_BONDANNOTATIONS>
17  18  8
18  23  8
19  20  8
20  24  8
5  17  8
5  8  8
6  19  8
6  21  8
7  21  8
7  24  8
8  23  8

$$$$
