46179972
  -OEChem-03192523252D

 68 72  0     0  0  0  0  0  0999 V2000
   14.3969   -3.0311    0.0000 O   0  4  0  0  0  0  0  0  0  0  0  0
   10.8969   -0.4330    0.0000 O   0  0  0  0  0  0  0  0  0  0  0  0
    2.5369    0.1651    0.0000 O   0  0  0  0  0  0  0  0  0  0  0  0
   13.8969   -2.1651    0.0000 N   0  0  0  0  0  0  0  0  0  0  0  0
   12.3969    0.4330    0.0000 N   0  0  0  0  0  0  0  0  0  0  0  0
    7.8133    1.3603    0.0000 N   0  0  0  0  0  0  0  0  0  0  0  0
    6.8671    1.6651    0.0000 N   0  0  0  0  0  0  0  0  0  0  0  0
    6.0010    3.1651    0.0000 N   0  0  0  0  0  0  0  0  0  0  0  0
    6.0010    0.1651    0.0000 N   0  0  0  0  0  0  0  0  0  0  0  0
   14.3969   -1.2990    0.0000 C   0  0  0  0  0  0  0  0  0  0  0  0
   12.8969   -2.1651    0.0000 C   0  0  0  0  0  0  0  0  0  0  0  0
   12.8969   -0.4330    0.0000 C   0  0  0  0  0  0  0  0  0  0  0  0
   13.8969   -0.4330    0.0000 C   0  0  0  0  0  0  0  0  0  0  0  0
   12.3969   -1.2990    0.0000 C   0  0  0  0  0  0  0  0  0  0  0  0
   15.2629   -1.7990    0.0000 C   0  0  0  0  0  0  0  0  0  0  0  0
   15.2629   -0.7990    0.0000 C   0  0  0  0  0  0  0  0  0  0  0  0
   12.8969   -3.1651    0.0000 C   0  0  0  0  0  0  0  0  0  0  0  0
   12.0309   -2.6651    0.0000 C   0  0  0  0  0  0  0  0  0  0  0  0
   11.3969    0.4330    0.0000 C   0  0  0  0  0  0  0  0  0  0  0  0
   10.8969    1.2990    0.0000 C   0  0  0  0  0  0  0  0  0  0  0  0
    9.8969    1.2990    0.0000 C   0  0  0  0  0  0  0  0  0  0  0  0
   11.3969    2.1651    0.0000 C   0  0  0  0  0  0  0  0  0  0  0  0
    9.3969    2.1651    0.0000 C   0  0  0  0  0  0  0  0  0  0  0  0
   10.8969    3.0311    0.0000 C   0  0  0  0  0  0  0  0  0  0  0  0
    9.8969    3.0311    0.0000 C   0  0  0  0  0  0  0  0  0  0  0  0
    8.3969    2.1651    0.0000 C   0  0  0  0  0  0  0  0  0  0  0  0
    7.8133    2.9698    0.0000 C   0  0  0  0  0  0  0  0  0  0  0  0
    6.8671    2.6651    0.0000 C   0  0  0  0  0  0  0  0  0  0  0  0
    6.0010    1.1651    0.0000 C   0  0  0  0  0  0  0  0  0  0  0  0
    5.1350    1.6651    0.0000 C   0  0  0  0  0  0  0  0  0  0  0  0
    5.1350    2.6651    0.0000 C   0  0  0  0  0  0  0  0  0  0  0  0
    5.1350   -0.3349    0.0000 C   0  0  0  0  0  0  0  0  0  0  0  0
    4.2690    0.1651    0.0000 C   0  0  0  0  0  0  0  0  0  0  0  0
    5.1350   -1.3349    0.0000 C   0  0  0  0  0  0  0  0  0  0  0  0
    3.4030   -0.3349    0.0000 C   0  0  0  0  0  0  0  0  0  0  0  0
    4.2690   -1.8349    0.0000 C   0  0  0  0  0  0  0  0  0  0  0  0
    3.4030   -1.3349    0.0000 C   0  0  0  0  0  0  0  0  0  0  0  0
   13.2069    0.1039    0.0000 H   0  0  0  0  0  0  0  0  0  0  0  0
   14.4795   -0.2210    0.0000 H   0  0  0  0  0  0  0  0  0  0  0  0
   13.7892    0.1776    0.0000 H   0  0  0  0  0  0  0  0  0  0  0  0
   11.9219   -0.9005    0.0000 H   0  0  0  0  0  0  0  0  0  0  0  0
   11.9219   -1.6976    0.0000 H   0  0  0  0  0  0  0  0  0  0  0  0
   14.9529   -2.3360    0.0000 H   0  0  0  0  0  0  0  0  0  0  0  0
   15.7999   -2.1090    0.0000 H   0  0  0  0  0  0  0  0  0  0  0  0
   15.5729   -1.2621    0.0000 H   0  0  0  0  0  0  0  0  0  0  0  0
   15.5729   -1.3360    0.0000 H   0  0  0  0  0  0  0  0  0  0  0  0
   15.7999   -0.4890    0.0000 H   0  0  0  0  0  0  0  0  0  0  0  0
   14.9529   -0.2621    0.0000 H   0  0  0  0  0  0  0  0  0  0  0  0
   12.2769   -3.1651    0.0000 H   0  0  0  0  0  0  0  0  0  0  0  0
   12.8969   -3.7851    0.0000 H   0  0  0  0  0  0  0  0  0  0  0  0
   13.5169   -3.1651    0.0000 H   0  0  0  0  0  0  0  0  0  0  0  0
   11.7209   -2.1281    0.0000 H   0  0  0  0  0  0  0  0  0  0  0  0
   11.4939   -2.9751    0.0000 H   0  0  0  0  0  0  0  0  0  0  0  0
   12.3409   -3.2020    0.0000 H   0  0  0  0  0  0  0  0  0  0  0  0
   12.7069    0.9699    0.0000 H   0  0  0  0  0  0  0  0  0  0  0  0
    9.5869    0.7621    0.0000 H   0  0  0  0  0  0  0  0  0  0  0  0
   12.0169    2.1651    0.0000 H   0  0  0  0  0  0  0  0  0  0  0  0
   11.2069    3.5680    0.0000 H   0  0  0  0  0  0  0  0  0  0  0  0
    9.5869    3.5680    0.0000 H   0  0  0  0  0  0  0  0  0  0  0  0
    8.0059    3.5591    0.0000 H   0  0  0  0  0  0  0  0  0  0  0  0
    4.5981    1.3551    0.0000 H   0  0  0  0  0  0  0  0  0  0  0  0
    6.5380   -0.1449    0.0000 H   0  0  0  0  0  0  0  0  0  0  0  0
    4.5981    2.9751    0.0000 H   0  0  0  0  0  0  0  0  0  0  0  0
    4.2690    0.7851    0.0000 H   0  0  0  0  0  0  0  0  0  0  0  0
    5.6720   -1.6449    0.0000 H   0  0  0  0  0  0  0  0  0  0  0  0
    4.2690   -2.4549    0.0000 H   0  0  0  0  0  0  0  0  0  0  0  0
    2.8660   -1.6449    0.0000 H   0  0  0  0  0  0  0  0  0  0  0  0
    2.0000   -0.1449    0.0000 H   0  0  0  0  0  0  0  0  0  0  0  0
  1  4  1  0  0  0  0
  2 19  2  0  0  0  0
  3 35  1  0  0  0  0
  3 68  1  0  0  0  0
  4 10  1  0  0  0  0
  4 11  1  0  0  0  0
  5 12  1  0  0  0  0
  5 19  1  0  0  0  0
  5 55  1  0  0  0  0
  6  7  1  0  0  0  0
  6 26  2  0  0  0  0
  7 28  1  0  0  0  0
  7 29  1  0  0  0  0
  8 28  1  0  0  0  0
  8 31  2  0  0  0  0
  9 29  1  0  0  0  0
  9 32  1  0  0  0  0
  9 62  1  0  0  0  0
 10 13  1  0  0  0  0
 10 15  1  0  0  0  0
 10 16  1  0  0  0  0
 11 14  1  0  0  0  0
 11 17  1  0  0  0  0
 11 18  1  0  0  0  0
 12 13  1  0  0  0  0
 12 14  1  0  0  0  0
 12 38  1  0  0  0  0
 13 39  1  0  0  0  0
 13 40  1  0  0  0  0
 14 41  1  0  0  0  0
 14 42  1  0  0  0  0
 15 43  1  0  0  0  0
 15 44  1  0  0  0  0
 15 45  1  0  0  0  0
 16 46  1  0  0  0  0
 16 47  1  0  0  0  0
 16 48  1  0  0  0  0
 17 49  1  0  0  0  0
 17 50  1  0  0  0  0
 17 51  1  0  0  0  0
 18 52  1  0  0  0  0
 18 53  1  0  0  0  0
 18 54  1  0  0  0  0
 19 20  1  0  0  0  0
 20 21  1  0  0  0  0
 20 22  2  0  0  0  0
 21 23  2  0  0  0  0
 21 56  1  0  0  0  0
 22 24  1  0  0  0  0
 22 57  1  0  0  0  0
 23 25  1  0  0  0  0
 23 26  1  0  0  0  0
 24 25  2  0  0  0  0
 24 58  1  0  0  0  0
 25 59  1  0  0  0  0
 26 27  1  0  0  0  0
 27 28  2  0  0  0  0
 27 60  1  0  0  0  0
 29 30  2  0  0  0  0
 30 31  1  0  0  0  0
 30 61  1  0  0  0  0
 31 63  1  0  0  0  0
 32 33  2  0  0  0  0
 32 34  1  0  0  0  0
 33 35  1  0  0  0  0
 33 64  1  0  0  0  0
 34 36  2  0  0  0  0
 34 65  1  0  0  0  0
 35 37  2  0  0  0  0
 36 37  1  0  0  0  0
 36 66  1  0  0  0  0
 37 67  1  0  0  0  0
M  RAD  1   1   2
M  END
> <PUBCHEM_COMPOUND_CID>
46179972

> <PUBCHEM_COMPOUND_CANONICALIZED>
1

> <PUBCHEM_CACTVS_COMPLEXITY>
791

> <PUBCHEM_CACTVS_HBOND_ACCEPTOR>
6

> <PUBCHEM_CACTVS_HBOND_DONOR>
3

> <PUBCHEM_CACTVS_ROTATABLE_BOND>
5

> <PUBCHEM_CACTVS_SUBSKEYS>
AAADceB7sAAAAAAAAAAAAAAAAAAAAWAAAAA8eIEAAAAAAFgB9AAAHgAcCAAADKzBnwQ/9p7YEgCqAzd3dACShCs1IqA92KE+bNiILvLC3dOE9Qh+3hvI2aeY2cOeAAACAgAAAAAAAAQEAAAAAAAAAAAAAA==

> <PUBCHEM_IUPAC_INCHI>
InChI=1S/C28H31N6O3/c1-27(2)16-21(17-28(3,4)34(27)37)31-26(36)19-8-5-7-18(13-19)23-15-25-29-12-11-24(33(25)32-23)30-20-9-6-10-22(35)14-20/h5-15,21,30,35H,16-17H2,1-4H3,(H,31,36)

> <PUBCHEM_IUPAC_INCHIKEY>
GNIYUURCQFKRCB-UHFFFAOYSA-N

> <PUBCHEM_XLOGP3_AA>
4.1

> <PUBCHEM_EXACT_MASS>
499.24576387

> <PUBCHEM_MOLECULAR_FORMULA>
C28H31N6O3

> <PUBCHEM_MOLECULAR_WEIGHT>
499.6

> <PUBCHEM_SMILES>
CC1(CC(CC(N1[O])(C)C)NC(=O)C2=CC=CC(=C2)C3=NN4C(=CC=NC4=C3)NC5=CC(=CC=C5)O)C

> <PUBCHEM_OPENEYE_CAN_SMILES>
CC1(CC(CC(N1[O])(C)C)NC(=O)C2=CC=CC(=C2)C3=NN4C(=CC=NC4=C3)NC5=CC(=CC=C5)O)C

> <PUBCHEM_OPENEYE_ISO_SMILES>
CC1(CC(CC(N1[O])(C)C)NC(=O)C2=CC=CC(=C2)C3=NN4C(=CC=NC4=C3)NC5=CC(=CC=C5)O)C

> <PUBCHEM_CACTVS_TPSA>
95.8

> <PUBCHEM_MONOISOTOPIC_WEIGHT>
499.24576387

> <PUBCHEM_TOTAL_CHARGE>
0

> <PUBCHEM_HEAVY_ATOM_COUNT>
37

> <PUBCHEM_ATOM_DEF_STEREO_COUNT>
0

> <PUBCHEM_ATOM_UDEF_STEREO_COUNT>
0

> <PUBCHEM_BOND_DEF_STEREO_COUNT>
0

> <PUBCHEM_BOND_UDEF_STEREO_COUNT>
0

> <PUBCHEM_ISOTOPIC_ATOM_COUNT>
0

> <PUBCHEM_COMPONENT_COUNT>
1

> <PUBCHEM_CACTVS_TAUTO_COUNT>
-1

> <PUBCHEM_COORDINATE_TYPE>
1
5
255

> <PUBCHEM_BONDANNOTATIONS>
20  21  8
20  22  8
21  23  8
22  24  8
23  25  8
24  25  8
26  27  8
27  28  8
29  30  8
30  31  8
32  33  8
32  34  8
33  35  8
34  36  8
35  37  8
36  37  8
6  26  8
6  7  8
7  28  8
7  29  8
8  28  8
8  31  8

$$$$
