44186879
  -OEChem-03202503562D

 31 33  0     0  0  0  0  0  0999 V2000
    2.3644    0.7112    0.0000 O   0  0  0  0  0  0  0  0  0  0  0  0
    5.9361    0.5838    0.0000 N   0  0  0  0  0  0  0  0  0  0  0  0
    4.8535    1.7863    0.0000 N   0  0  0  0  0  0  0  0  0  0  0  0
    5.8316    1.5784    0.0000 N   0  0  0  0  0  0  0  0  0  0  0  0
    9.4804   -1.2209    0.0000 N   0  0  0  0  0  0  0  0  0  0  0  0
   10.0641   -0.4162    0.0000 N   0  0  0  0  0  0  0  0  0  0  0  0
    3.3590    0.8157    0.0000 C   0  0  0  0  0  0  0  0  0  0  0  0
    4.3535    0.9202    0.0000 C   0  0  0  0  0  0  0  0  0  0  0  0
    6.8022    0.0838    0.0000 C   0  0  0  0  0  0  0  0  0  0  0  0
    3.2544    1.8102    0.0000 C   0  0  0  0  0  0  0  0  0  0  0  0
    3.4635   -0.1788    0.0000 C   0  0  0  0  0  0  0  0  0  0  0  0
    5.0226    0.1771    0.0000 C   0  0  0  0  0  0  0  0  0  0  0  0
    8.5342    0.0838    0.0000 C   0  0  0  0  0  0  0  0  0  0  0  0
    7.6682    0.5838    0.0000 C   0  0  0  0  0  0  0  0  0  0  0  0
    8.5342   -0.9162    0.0000 C   0  0  0  0  0  0  0  0  0  0  0  0
    6.8022   -0.9162    0.0000 C   0  0  0  0  0  0  0  0  0  0  0  0
    7.6682   -1.4162    0.0000 C   0  0  0  0  0  0  0  0  0  0  0  0
    9.4804    0.3886    0.0000 C   0  0  0  0  0  0  0  0  0  0  0  0
    3.8710    1.8750    0.0000 H   0  0  0  0  0  0  0  0  0  0  0  0
    3.1896    2.4268    0.0000 H   0  0  0  0  0  0  0  0  0  0  0  0
    2.6378    1.7454    0.0000 H   0  0  0  0  0  0  0  0  0  0  0  0
    2.8469   -0.2436    0.0000 H   0  0  0  0  0  0  0  0  0  0  0  0
    3.5283   -0.7954    0.0000 H   0  0  0  0  0  0  0  0  0  0  0  0
    4.0801   -0.1140    0.0000 H   0  0  0  0  0  0  0  0  0  0  0  0
    4.8937   -0.4294    0.0000 H   0  0  0  0  0  0  0  0  0  0  0  0
    7.6682    1.2038    0.0000 H   0  0  0  0  0  0  0  0  0  0  0  0
    6.2652   -1.2262    0.0000 H   0  0  0  0  0  0  0  0  0  0  0  0
    7.6682   -2.0362    0.0000 H   0  0  0  0  0  0  0  0  0  0  0  0
    2.0000    1.2128    0.0000 H   0  0  0  0  0  0  0  0  0  0  0  0
    9.6730    0.9779    0.0000 H   0  0  0  0  0  0  0  0  0  0  0  0
    9.6730   -1.8102    0.0000 H   0  0  0  0  0  0  0  0  0  0  0  0
  1  7  1  0  0  0  0
  1 29  1  0  0  0  0
  2  4  1  0  0  0  0
  2  9  1  0  0  0  0
  2 12  1  0  0  0  0
  3  4  2  0  0  0  0
  3  8  1  0  0  0  0
  5  6  1  0  0  0  0
  5 15  1  0  0  0  0
  5 31  1  0  0  0  0
  6 18  2  0  0  0  0
  7  8  1  0  0  0  0
  7 10  1  0  0  0  0
  7 11  1  0  0  0  0
  8 12  2  0  0  0  0
  9 14  2  0  0  0  0
  9 16  1  0  0  0  0
 10 19  1  0  0  0  0
 10 20  1  0  0  0  0
 10 21  1  0  0  0  0
 11 22  1  0  0  0  0
 11 23  1  0  0  0  0
 11 24  1  0  0  0  0
 12 25  1  0  0  0  0
 13 14  1  0  0  0  0
 13 15  2  0  0  0  0
 13 18  1  0  0  0  0
 14 26  1  0  0  0  0
 15 17  1  0  0  0  0
 16 17  2  0  0  0  0
 16 27  1  0  0  0  0
 17 28  1  0  0  0  0
 18 30  1  0  0  0  0
M  END
> <PUBCHEM_COMPOUND_CID>
44186879

> <PUBCHEM_COMPOUND_CANONICALIZED>
1

> <PUBCHEM_CACTVS_COMPLEXITY>
311

> <PUBCHEM_CACTVS_HBOND_ACCEPTOR>
4

> <PUBCHEM_CACTVS_HBOND_DONOR>
2

> <PUBCHEM_CACTVS_ROTATABLE_BOND>
2

> <PUBCHEM_CACTVS_SUBSKEYS>
AAADccBzoAAAAAAAAAAAAAAAAAAAAWLAAAAwAAAAAAAAAFgB/AAAHgAYCAAADEzBngQ+wPJrAgCiAzRnRASSBCQxkgAYuSA4fJgKZOLA0dGU5AhimADI2AcQgAAOAACAQAACAAAAAQCAAAQAAAAAAAAAAA==

> <PUBCHEM_IUPAC_OPENEYE_NAME>
2-[1-(1H-indazol-5-yl)triazol-4-yl]propan-2-ol

> <PUBCHEM_IUPAC_CAS_NAME>
2-[1-(1H-indazol-5-yl)-4-triazolyl]-2-propanol

> <PUBCHEM_IUPAC_NAME_MARKUP>
2-[1-(1<I>H</I>-indazol-5-yl)triazol-4-yl]propan-2-ol

> <PUBCHEM_IUPAC_NAME>
2-[1-(1H-indazol-5-yl)triazol-4-yl]propan-2-ol

> <PUBCHEM_IUPAC_SYSTEMATIC_NAME>
2-[1-(1H-indazol-5-yl)-1,2,3-triazol-4-yl]propan-2-ol

> <PUBCHEM_IUPAC_TRADITIONAL_NAME>
2-[1-(1H-indazol-5-yl)triazol-4-yl]propan-2-ol

> <PUBCHEM_IUPAC_INCHI>
InChI=1S/C12H13N5O/c1-12(2,18)11-7-17(16-15-11)9-3-4-10-8(5-9)6-13-14-10/h3-7,18H,1-2H3,(H,13,14)

> <PUBCHEM_IUPAC_INCHIKEY>
PSDWYZBYMPNKSJ-UHFFFAOYSA-N

> <PUBCHEM_XLOGP3_AA>
0.7

> <PUBCHEM_EXACT_MASS>
243.11201006

> <PUBCHEM_MOLECULAR_FORMULA>
C12H13N5O

> <PUBCHEM_MOLECULAR_WEIGHT>
243.26

> <PUBCHEM_SMILES>
CC(C)(C1=CN(N=N1)C2=CC3=C(C=C2)NN=C3)O

> <PUBCHEM_OPENEYE_CAN_SMILES>
CC(C)(C1=CN(N=N1)C2=CC3=C(C=C2)NN=C3)O

> <PUBCHEM_OPENEYE_ISO_SMILES>
CC(C)(C1=CN(N=N1)C2=CC3=C(C=C2)NN=C3)O

> <PUBCHEM_CACTVS_TPSA>
79.6

> <PUBCHEM_MONOISOTOPIC_WEIGHT>
243.11201006

> <PUBCHEM_TOTAL_CHARGE>
0

> <PUBCHEM_HEAVY_ATOM_COUNT>
18

> <PUBCHEM_ATOM_DEF_STEREO_COUNT>
0

> <PUBCHEM_ATOM_UDEF_STEREO_COUNT>
0

> <PUBCHEM_BOND_DEF_STEREO_COUNT>
0

> <PUBCHEM_BOND_UDEF_STEREO_COUNT>
0

> <PUBCHEM_ISOTOPIC_ATOM_COUNT>
0

> <PUBCHEM_COMPONENT_COUNT>
1

> <PUBCHEM_CACTVS_TAUTO_COUNT>
-1

> <PUBCHEM_COORDINATE_TYPE>
1
5
255

> <PUBCHEM_BONDANNOTATIONS>
13  14  8
13  15  8
13  18  8
15  17  8
16  17  8
2  12  8
2  4  8
3  4  8
3  8  8
5  15  8
5  6  8
6  18  8
8  12  8
9  14  8
9  16  8

$$$$
