22607499
  -OEChem-03202501002D

 52 56  0     1  0  0  0  0  0999 V2000
    6.1831   -0.1922    0.0000 O   0  0  0  0  0  0  0  0  0  0  0  0
   12.1771   -3.6922    0.0000 O   0  0  0  0  0  0  0  0  0  0  0  0
    4.9511    4.3376    0.0000 N   0  0  0  0  0  0  0  0  0  0  0  0
    6.1831    1.8078    0.0000 N   0  0  0  0  0  0  0  0  0  0  0  0
   10.5935   -4.4969    0.0000 N   0  0  0  0  0  0  0  0  0  0  0  0
    5.3171   -2.6922    0.0000 N   0  0  0  0  0  0  0  0  0  0  0  0
    4.4511    1.8078    0.0000 C   0  0  0  0  0  0  0  0  0  0  0  0
    5.3171    1.3078    0.0000 C   0  0  3  0  0  0  0  0  0  0  0  0
    4.4511    2.8078    0.0000 C   0  0  0  0  0  0  0  0  0  0  0  0
    3.6464    3.3914    0.0000 C   0  0  0  0  0  0  0  0  0  0  0  0
    5.3171    0.3078    0.0000 C   0  0  0  0  0  0  0  0  0  0  0  0
    3.9570    4.3419    0.0000 C   0  0  0  0  0  0  0  0  0  0  0  0
    5.2558    3.3914    0.0000 C   0  0  0  0  0  0  0  0  0  0  0  0
    9.6472   -3.1922    0.0000 C   0  0  0  0  0  0  0  0  0  0  0  0
    9.6472   -4.1922    0.0000 C   0  0  0  0  0  0  0  0  0  0  0  0
   10.5935   -2.8875    0.0000 C   0  0  0  0  0  0  0  0  0  0  0  0
    2.6678    3.1852    0.0000 C   0  0  0  0  0  0  0  0  0  0  0  0
    7.9152   -3.1922    0.0000 C   0  0  0  0  0  0  0  0  0  0  0  0
    8.7812   -2.6922    0.0000 C   0  0  0  0  0  0  0  0  0  0  0  0
    3.2892    5.0862    0.0000 C   0  0  0  0  0  0  0  0  0  0  0  0
    7.0492   -2.6922    0.0000 C   0  0  0  0  0  0  0  0  0  0  0  0
   11.1771   -3.6922    0.0000 C   0  0  0  0  0  0  0  0  0  0  0  0
    8.7812   -4.6922    0.0000 C   0  0  0  0  0  0  0  0  0  0  0  0
    7.9152   -4.1922    0.0000 C   0  0  0  0  0  0  0  0  0  0  0  0
    6.1831   -1.1922    0.0000 C   0  0  0  0  0  0  0  0  0  0  0  0
    2.0000    3.9295    0.0000 C   0  0  0  0  0  0  0  0  0  0  0  0
    7.0492   -1.6922    0.0000 C   0  0  0  0  0  0  0  0  0  0  0  0
    2.3107    4.8800    0.0000 C   0  0  0  0  0  0  0  0  0  0  0  0
    6.1831   -3.1922    0.0000 C   0  0  0  0  0  0  0  0  0  0  0  0
    5.3171   -1.6922    0.0000 C   0  0  0  0  0  0  0  0  0  0  0  0
    3.8405    1.9155    0.0000 H   0  0  0  0  0  0  0  0  0  0  0  0
    4.2390    1.2252    0.0000 H   0  0  0  0  0  0  0  0  0  0  0  0
    5.3171    1.9278    0.0000 H   0  0  0  0  0  0  0  0  0  0  0  0
    4.7065    0.4155    0.0000 H   0  0  0  0  0  0  0  0  0  0  0  0
    5.1050   -0.2748    0.0000 H   0  0  0  0  0  0  0  0  0  0  0  0
    5.8451    3.1988    0.0000 H   0  0  0  0  0  0  0  0  0  0  0  0
    5.3172    4.8380    0.0000 H   0  0  0  0  0  0  0  0  0  0  0  0
   11.1308   -2.5782    0.0000 H   0  0  0  0  0  0  0  0  0  0  0  0
   10.3424   -2.3206    0.0000 H   0  0  0  0  0  0  0  0  0  0  0  0
    2.4752    2.5959    0.0000 H   0  0  0  0  0  0  0  0  0  0  0  0
    6.7201    1.4978    0.0000 H   0  0  0  0  0  0  0  0  0  0  0  0
    6.1831    2.4278    0.0000 H   0  0  0  0  0  0  0  0  0  0  0  0
    8.7812   -2.0722    0.0000 H   0  0  0  0  0  0  0  0  0  0  0  0
    3.4818    5.6756    0.0000 H   0  0  0  0  0  0  0  0  0  0  0  0
   10.7861   -5.0862    0.0000 H   0  0  0  0  0  0  0  0  0  0  0  0
    8.7812   -5.3122    0.0000 H   0  0  0  0  0  0  0  0  0  0  0  0
    7.3782   -4.5022    0.0000 H   0  0  0  0  0  0  0  0  0  0  0  0
    1.3933    3.8016    0.0000 H   0  0  0  0  0  0  0  0  0  0  0  0
    7.5861   -1.3822    0.0000 H   0  0  0  0  0  0  0  0  0  0  0  0
    1.8966    5.3415    0.0000 H   0  0  0  0  0  0  0  0  0  0  0  0
    6.1831   -3.8122    0.0000 H   0  0  0  0  0  0  0  0  0  0  0  0
    4.7802   -1.3822    0.0000 H   0  0  0  0  0  0  0  0  0  0  0  0
  1 11  1  0  0  0  0
  1 25  1  0  0  0  0
  2 22  2  0  0  0  0
  3 12  1  0  0  0  0
  3 13  1  0  0  0  0
  3 37  1  0  0  0  0
  4  8  1  0  0  0  0
  4 41  1  0  0  0  0
  4 42  1  0  0  0  0
  5 15  1  0  0  0  0
  5 22  1  0  0  0  0
  5 45  1  0  0  0  0
  6 29  2  0  0  0  0
  6 30  1  0  0  0  0
  7  8  1  0  0  0  0
  7  9  1  0  0  0  0
  7 31  1  0  0  0  0
  7 32  1  0  0  0  0
  8 11  1  0  0  0  0
  8 33  1  0  0  0  0
  9 10  1  0  0  0  0
  9 13  2  0  0  0  0
 10 12  1  0  0  0  0
 10 17  2  0  0  0  0
 11 34  1  0  0  0  0
 11 35  1  0  0  0  0
 12 20  2  0  0  0  0
 13 36  1  0  0  0  0
 14 15  2  0  0  0  0
 14 16  1  0  0  0  0
 14 19  1  0  0  0  0
 15 23  1  0  0  0  0
 16 22  1  0  0  0  0
 16 38  1  0  0  0  0
 16 39  1  0  0  0  0
 17 26  1  0  0  0  0
 17 40  1  0  0  0  0
 18 19  2  0  0  0  0
 18 21  1  0  0  0  0
 18 24  1  0  0  0  0
 19 43  1  0  0  0  0
 20 28  1  0  0  0  0
 20 44  1  0  0  0  0
 21 27  2  0  0  0  0
 21 29  1  0  0  0  0
 23 24  2  0  0  0  0
 23 46  1  0  0  0  0
 24 47  1  0  0  0  0
 25 27  1  0  0  0  0
 25 30  2  0  0  0  0
 26 28  2  0  0  0  0
 26 48  1  0  0  0  0
 27 49  1  0  0  0  0
 28 50  1  0  0  0  0
 29 51  1  0  0  0  0
 30 52  1  0  0  0  0
M  END
> <PUBCHEM_COMPOUND_CID>
22607499

> <PUBCHEM_COMPOUND_CANONICALIZED>
1

> <PUBCHEM_CACTVS_COMPLEXITY>
602

> <PUBCHEM_CACTVS_HBOND_ACCEPTOR>
4

> <PUBCHEM_CACTVS_HBOND_DONOR>
3

> <PUBCHEM_CACTVS_ROTATABLE_BOND>
6

> <PUBCHEM_CACTVS_SUBSKEYS>
AAADceB7sAAAAAAAAAAAAAAAAAAAAWLAAAA8YIAAAAAAAFgB/AAAHgAQAAAADCzhngY8xvLJlACoAzV3VASCiCAxYiAI2aE/bJgOJvLEtZuHOCjk1BHY6Ae82PKOiAACAAACAAAQAAQAAAQAAAAAAAAAAA==

> <PUBCHEM_IUPAC_OPENEYE_NAME>
5-[5-[2-amino-3-(1H-indol-3-yl)propoxy]-3-pyridyl]indolin-2-one

> <PUBCHEM_IUPAC_CAS_NAME>
5-[5-[2-amino-3-(1H-indol-3-yl)propoxy]-3-pyridinyl]-1,3-dihydroindol-2-one

> <PUBCHEM_IUPAC_NAME_MARKUP>
5-[5-[2-amino-3-(1<I>H</I>-indol-3-yl)propoxy]pyridin-3-yl]-1,3-dihydroindol-2-one

> <PUBCHEM_IUPAC_NAME>
5-[5-[2-amino-3-(1H-indol-3-yl)propoxy]pyridin-3-yl]-1,3-dihydroindol-2-one

> <PUBCHEM_IUPAC_SYSTEMATIC_NAME>
5-[5-[2-azanyl-3-(1H-indol-3-yl)propoxy]pyridin-3-yl]-1,3-dihydroindol-2-one

> <PUBCHEM_IUPAC_TRADITIONAL_NAME>
5-[5-[2-amino-3-(1H-indol-3-yl)propoxy]-3-pyridyl]oxindole

> <PUBCHEM_IUPAC_INCHI>
InChI=1S/C24H22N4O2/c25-19(8-18-12-27-23-4-2-1-3-21(18)23)14-30-20-9-17(11-26-13-20)15-5-6-22-16(7-15)10-24(29)28-22/h1-7,9,11-13,19,27H,8,10,14,25H2,(H,28,29)

> <PUBCHEM_IUPAC_INCHIKEY>
ORUUEFDGYYTXAF-UHFFFAOYSA-N

> <PUBCHEM_XLOGP3_AA>
2.5

> <PUBCHEM_EXACT_MASS>
398.17427596

> <PUBCHEM_MOLECULAR_FORMULA>
C24H22N4O2

> <PUBCHEM_MOLECULAR_WEIGHT>
398.5

> <PUBCHEM_SMILES>
C1C2=C(C=CC(=C2)C3=CC(=CN=C3)OCC(CC4=CNC5=CC=CC=C54)N)NC1=O

> <PUBCHEM_OPENEYE_CAN_SMILES>
C1C2=C(C=CC(=C2)C3=CC(=CN=C3)OCC(CC4=CNC5=CC=CC=C54)N)NC1=O

> <PUBCHEM_OPENEYE_ISO_SMILES>
C1C2=C(C=CC(=C2)C3=CC(=CN=C3)OCC(CC4=CNC5=CC=CC=C54)N)NC1=O

> <PUBCHEM_CACTVS_TPSA>
93

> <PUBCHEM_MONOISOTOPIC_WEIGHT>
398.17427596

> <PUBCHEM_TOTAL_CHARGE>
0

> <PUBCHEM_HEAVY_ATOM_COUNT>
30

> <PUBCHEM_ATOM_DEF_STEREO_COUNT>
0

> <PUBCHEM_ATOM_UDEF_STEREO_COUNT>
1

> <PUBCHEM_BOND_DEF_STEREO_COUNT>
0

> <PUBCHEM_BOND_UDEF_STEREO_COUNT>
0

> <PUBCHEM_ISOTOPIC_ATOM_COUNT>
0

> <PUBCHEM_COMPONENT_COUNT>
1

> <PUBCHEM_CACTVS_TAUTO_COUNT>
-1

> <PUBCHEM_COORDINATE_TYPE>
1
5
255

> <PUBCHEM_BONDANNOTATIONS>
10  12  8
10  17  8
12  20  8
14  15  8
14  19  8
15  23  8
17  26  8
18  19  8
18  24  8
20  28  8
21  27  8
21  29  8
23  24  8
25  27  8
25  30  8
26  28  8
3  12  8
3  13  8
8  4  3
6  29  8
6  30  8
9  10  8
9  13  8

$$$$
