23647212
  -OEChem-03202504382D

 37 39  0     0  0  0  0  0  0999 V2000
    2.0000   -2.0242    0.0000 Cl  0  0  0  0  0  0  0  0  0  0  0  0
    5.5301    1.0000    0.0000 O   0  0  0  0  0  0  0  0  0  0  0  0
    5.5301   -3.0000    0.0000 O   0  0  0  0  0  0  0  0  0  0  0  0
    5.5301    0.0000    0.0000 N   0  0  0  0  0  0  0  0  0  0  0  0
    7.3424   -0.1953    0.0000 N   0  0  0  0  0  0  0  0  0  0  0  0
    7.9260   -1.0000    0.0000 N   0  0  0  0  0  0  0  0  0  0  0  0
    6.3961   -0.5000    0.0000 C   0  0  0  0  0  0  0  0  0  0  0  0
    6.3961   -1.5000    0.0000 C   0  0  0  0  0  0  0  0  0  0  0  0
    4.6641   -0.5000    0.0000 C   0  0  0  0  0  0  0  0  0  0  0  0
    4.6641   -1.5000    0.0000 C   0  0  0  0  0  0  0  0  0  0  0  0
    5.5301   -2.0000    0.0000 C   0  0  0  0  0  0  0  0  0  0  0  0
    7.3424   -1.8047    0.0000 C   0  0  0  0  0  0  0  0  0  0  0  0
    3.7702    0.0347    0.0000 C   0  0  0  0  0  0  0  0  0  0  0  0
    3.7702   -2.0347    0.0000 C   0  0  0  0  0  0  0  0  0  0  0  0
    4.6641    1.5000    0.0000 C   0  0  0  0  0  0  0  0  0  0  0  0
    7.6530    0.7553    0.0000 C   0  0  0  0  0  0  0  0  0  0  0  0
    7.6530   -2.7553    0.0000 C   0  0  0  0  0  0  0  0  0  0  0  0
    2.8641   -0.4792    0.0000 C   0  0  0  0  0  0  0  0  0  0  0  0
    4.6641    2.5000    0.0000 C   0  0  0  0  0  0  0  0  0  0  0  0
    2.8641   -1.5208    0.0000 C   0  0  0  0  0  0  0  0  0  0  0  0
    3.7981    3.0000    0.0000 C   0  0  0  0  0  0  0  0  0  0  0  0
    3.7773    0.6546    0.0000 H   0  0  0  0  0  0  0  0  0  0  0  0
    3.7773   -2.6546    0.0000 H   0  0  0  0  0  0  0  0  0  0  0  0
    4.0535    1.6077    0.0000 H   0  0  0  0  0  0  0  0  0  0  0  0
    4.4520    0.9174    0.0000 H   0  0  0  0  0  0  0  0  0  0  0  0
    8.2424    0.5626    0.0000 H   0  0  0  0  0  0  0  0  0  0  0  0
    7.8456    1.3446    0.0000 H   0  0  0  0  0  0  0  0  0  0  0  0
    7.0637    0.9479    0.0000 H   0  0  0  0  0  0  0  0  0  0  0  0
    7.0637   -2.9479    0.0000 H   0  0  0  0  0  0  0  0  0  0  0  0
    7.8456   -3.3446    0.0000 H   0  0  0  0  0  0  0  0  0  0  0  0
    8.2424   -2.5626    0.0000 H   0  0  0  0  0  0  0  0  0  0  0  0
    5.2747    2.3923    0.0000 H   0  0  0  0  0  0  0  0  0  0  0  0
    4.8762    3.0826    0.0000 H   0  0  0  0  0  0  0  0  0  0  0  0
    2.3284   -0.1671    0.0000 H   0  0  0  0  0  0  0  0  0  0  0  0
    4.1081    3.5369    0.0000 H   0  0  0  0  0  0  0  0  0  0  0  0
    3.2611    3.3100    0.0000 H   0  0  0  0  0  0  0  0  0  0  0  0
    3.4881    2.4631    0.0000 H   0  0  0  0  0  0  0  0  0  0  0  0
  1 20  1  0  0  0  0
  2  4  1  0  0  0  0
  2 15  1  0  0  0  0
  3 11  2  0  0  0  0
  4  7  1  0  0  0  0
  4  9  1  0  0  0  0
  5  6  1  0  0  0  0
  5  7  1  0  0  0  0
  5 16  1  0  0  0  0
  6 12  2  0  0  0  0
  7  8  2  0  0  0  0
  8 11  1  0  0  0  0
  8 12  1  0  0  0  0
  9 10  2  0  0  0  0
  9 13  1  0  0  0  0
 10 11  1  0  0  0  0
 10 14  1  0  0  0  0
 12 17  1  0  0  0  0
 13 18  2  0  0  0  0
 13 22  1  0  0  0  0
 14 20  2  0  0  0  0
 14 23  1  0  0  0  0
 15 19  1  0  0  0  0
 15 24  1  0  0  0  0
 15 25  1  0  0  0  0
 16 26  1  0  0  0  0
 16 27  1  0  0  0  0
 16 28  1  0  0  0  0
 17 29  1  0  0  0  0
 17 30  1  0  0  0  0
 17 31  1  0  0  0  0
 18 20  1  0  0  0  0
 18 34  1  0  0  0  0
 19 21  1  0  0  0  0
 19 32  1  0  0  0  0
 19 33  1  0  0  0  0
 21 35  1  0  0  0  0
 21 36  1  0  0  0  0
 21 37  1  0  0  0  0
M  END
> <PUBCHEM_COMPOUND_CID>
23647212

> <PUBCHEM_COMPOUND_CANONICALIZED>
1

> <PUBCHEM_CACTVS_COMPLEXITY>
408

> <PUBCHEM_CACTVS_HBOND_ACCEPTOR>
4

> <PUBCHEM_CACTVS_HBOND_DONOR>
0

> <PUBCHEM_CACTVS_ROTATABLE_BOND>
3

> <PUBCHEM_CACTVS_SUBSKEYS>
AAADceBzMAAEAAAAAAAAAAAAAAAAAWAAAAA8QAAAAAAAAFixwAAAHgIMAAAADA6hniYz8JIYAACqA6ZyZACSBAMlhwA92CE4ZtiIIHrB39GEpYhoiALIyecYiMCOAABAIAACAAAAAIBAAAQAAAAAAAAAAA==

> <PUBCHEM_IUPAC_OPENEYE_NAME>
6-chloro-1,3-dimethyl-9-propoxy-pyrazolo[3,4-b]quinolin-4-one

> <PUBCHEM_IUPAC_CAS_NAME>
6-chloro-1,3-dimethyl-9-propoxy-4-pyrazolo[3,4-b]quinolinone

> <PUBCHEM_IUPAC_NAME_MARKUP>
6-chloro-1,3-dimethyl-9-propoxypyrazolo[3,4-b]quinolin-4-one

> <PUBCHEM_IUPAC_NAME>
6-chloro-1,3-dimethyl-9-propoxypyrazolo[3,4-b]quinolin-4-one

> <PUBCHEM_IUPAC_SYSTEMATIC_NAME>
6-chloranyl-1,3-dimethyl-9-propoxy-pyrazolo[3,4-b]quinolin-4-one

> <PUBCHEM_IUPAC_TRADITIONAL_NAME>
6-chloro-1,3-dimethyl-9-propoxy-pyrazolo[3,4-b]quinolin-4-one

> <PUBCHEM_IUPAC_INCHI>
InChI=1S/C15H16ClN3O2/c1-4-7-21-19-12-6-5-10(16)8-11(12)14(20)13-9(2)17-18(3)15(13)19/h5-6,8H,4,7H2,1-3H3

> <PUBCHEM_IUPAC_INCHIKEY>
APAXIHMQFUOISM-UHFFFAOYSA-N

> <PUBCHEM_XLOGP3_AA>
3.7

> <PUBCHEM_EXACT_MASS>
305.0931045

> <PUBCHEM_MOLECULAR_FORMULA>
C15H16ClN3O2

> <PUBCHEM_MOLECULAR_WEIGHT>
305.76

> <PUBCHEM_SMILES>
CCCON1C2=C(C=C(C=C2)Cl)C(=O)C3=C1N(N=C3C)C

> <PUBCHEM_OPENEYE_CAN_SMILES>
CCCON1C2=C(C=C(C=C2)Cl)C(=O)C3=C1N(N=C3C)C

> <PUBCHEM_OPENEYE_ISO_SMILES>
CCCON1C2=C(C=C(C=C2)Cl)C(=O)C3=C1N(N=C3C)C

> <PUBCHEM_CACTVS_TPSA>
47.4

> <PUBCHEM_MONOISOTOPIC_WEIGHT>
305.0931045

> <PUBCHEM_TOTAL_CHARGE>
0

> <PUBCHEM_HEAVY_ATOM_COUNT>
21

> <PUBCHEM_ATOM_DEF_STEREO_COUNT>
0

> <PUBCHEM_ATOM_UDEF_STEREO_COUNT>
0

> <PUBCHEM_BOND_DEF_STEREO_COUNT>
0

> <PUBCHEM_BOND_UDEF_STEREO_COUNT>
0

> <PUBCHEM_ISOTOPIC_ATOM_COUNT>
0

> <PUBCHEM_COMPONENT_COUNT>
1

> <PUBCHEM_CACTVS_TAUTO_COUNT>
-1

> <PUBCHEM_COORDINATE_TYPE>
1
5
255

> <PUBCHEM_BONDANNOTATIONS>
10  11  8
10  14  8
13  18  8
14  20  8
18  20  8
4  7  8
4  9  8
5  6  8
5  7  8
6  12  8
7  8  8
8  11  8
8  12  8
9  10  8
9  13  8

$$$$
