10386217
  -OEChem-03202507002D

 49 52  0     0  0  0  0  0  0999 V2000
    7.6426   -5.0444    0.0000 S   0  0  0  0  0  0  0  0  0  0  0  0
    5.4400   -2.4799    0.0000 O   0  0  0  0  0  0  0  0  0  0  0  0
    2.8660    2.0444    0.0000 O   0  0  0  0  0  0  0  0  0  0  0  0
    2.8660    4.0444    0.0000 O   0  0  0  0  0  0  0  0  0  0  0  0
    6.3465    1.0098    0.0000 N   0  0  0  0  0  0  0  0  0  0  0  0
    6.3233   -0.9900    0.0000 N   0  0  0  0  0  0  0  0  0  0  0  0
    7.2641    2.5236    0.0000 N   0  0  0  0  0  0  0  0  0  0  0  0
    7.1720   -2.5000    0.0000 N   0  0  0  0  0  0  0  0  0  0  0  0
    6.3580    4.0791    0.0000 N   0  0  0  0  0  0  0  0  0  0  0  0
    7.2067    0.4998    0.0000 C   0  0  0  0  0  0  0  0  0  0  0  0
    5.4747    0.5199    0.0000 C   0  0  0  0  0  0  0  0  0  0  0  0
    7.1951   -0.5001    0.0000 C   0  0  0  0  0  0  0  0  0  0  0  0
    5.4632   -0.4801    0.0000 C   0  0  0  0  0  0  0  0  0  0  0  0
    6.3580    2.0098    0.0000 C   0  0  0  0  0  0  0  0  0  0  0  0
    5.4641    2.5444    0.0000 C   0  0  0  0  0  0  0  0  0  0  0  0
    6.3118   -1.9900    0.0000 C   0  0  0  0  0  0  0  0  0  0  0  0
    5.4641    3.5444    0.0000 C   0  0  0  0  0  0  0  0  0  0  0  0
    4.5981    2.0444    0.0000 C   0  0  0  0  0  0  0  0  0  0  0  0
    4.5981    4.0444    0.0000 C   0  0  0  0  0  0  0  0  0  0  0  0
    3.7320    2.5444    0.0000 C   0  0  0  0  0  0  0  0  0  0  0  0
    7.2641    3.5652    0.0000 C   0  0  0  0  0  0  0  0  0  0  0  0
    3.7320    3.5444    0.0000 C   0  0  0  0  0  0  0  0  0  0  0  0
    7.1604   -3.4999    0.0000 C   0  0  0  0  0  0  0  0  0  0  0  0
    6.3446   -4.0783    0.0000 C   0  0  0  0  0  0  0  0  0  0  0  0
    7.9626   -4.0970    0.0000 C   0  0  0  0  0  0  0  0  0  0  0  0
    6.6426   -5.0328    0.0000 C   0  0  0  0  0  0  0  0  0  0  0  0
    2.0000    2.5444    0.0000 C   0  0  0  0  0  0  0  0  0  0  0  0
    2.8660    5.0444    0.0000 C   0  0  0  0  0  0  0  0  0  0  0  0
    7.8160    0.3851    0.0000 H   0  0  0  0  0  0  0  0  0  0  0  0
    7.4254    1.0800    0.0000 H   0  0  0  0  0  0  0  0  0  0  0  0
    5.2694    1.1049    0.0000 H   0  0  0  0  0  0  0  0  0  0  0  0
    4.8630    0.4193    0.0000 H   0  0  0  0  0  0  0  0  0  0  0  0
    7.4004   -1.0851    0.0000 H   0  0  0  0  0  0  0  0  0  0  0  0
    7.8069   -0.3995    0.0000 H   0  0  0  0  0  0  0  0  0  0  0  0
    4.8539   -0.3654    0.0000 H   0  0  0  0  0  0  0  0  0  0  0  0
    5.2444   -1.0602    0.0000 H   0  0  0  0  0  0  0  0  0  0  0  0
    4.5981    1.4244    0.0000 H   0  0  0  0  0  0  0  0  0  0  0  0
    7.7125   -2.1962    0.0000 H   0  0  0  0  0  0  0  0  0  0  0  0
    4.5981    4.6644    0.0000 H   0  0  0  0  0  0  0  0  0  0  0  0
    7.7998    3.8773    0.0000 H   0  0  0  0  0  0  0  0  0  0  0  0
    5.7572   -3.8799    0.0000 H   0  0  0  0  0  0  0  0  0  0  0  0
    8.5544   -3.9122    0.0000 H   0  0  0  0  0  0  0  0  0  0  0  0
    6.2724   -5.5302    0.0000 H   0  0  0  0  0  0  0  0  0  0  0  0
    2.3100    3.0814    0.0000 H   0  0  0  0  0  0  0  0  0  0  0  0
    1.4631    2.8544    0.0000 H   0  0  0  0  0  0  0  0  0  0  0  0
    1.6900    2.0075    0.0000 H   0  0  0  0  0  0  0  0  0  0  0  0
    3.4860    5.0444    0.0000 H   0  0  0  0  0  0  0  0  0  0  0  0
    2.8660    5.6644    0.0000 H   0  0  0  0  0  0  0  0  0  0  0  0
    2.2460    5.0444    0.0000 H   0  0  0  0  0  0  0  0  0  0  0  0
  1 25  1  0  0  0  0
  1 26  1  0  0  0  0
  2 16  2  0  0  0  0
  3 20  1  0  0  0  0
  3 27  1  0  0  0  0
  4 22  1  0  0  0  0
  4 28  1  0  0  0  0
  5 10  1  0  0  0  0
  5 11  1  0  0  0  0
  5 14  1  0  0  0  0
  6 12  1  0  0  0  0
  6 13  1  0  0  0  0
  6 16  1  0  0  0  0
  7 14  2  0  0  0  0
  7 21  1  0  0  0  0
  8 16  1  0  0  0  0
  8 23  1  0  0  0  0
  8 38  1  0  0  0  0
  9 17  1  0  0  0  0
  9 21  2  0  0  0  0
 10 12  1  0  0  0  0
 10 29  1  0  0  0  0
 10 30  1  0  0  0  0
 11 13  1  0  0  0  0
 11 31  1  0  0  0  0
 11 32  1  0  0  0  0
 12 33  1  0  0  0  0
 12 34  1  0  0  0  0
 13 35  1  0  0  0  0
 13 36  1  0  0  0  0
 14 15  1  0  0  0  0
 15 17  1  0  0  0  0
 15 18  2  0  0  0  0
 17 19  2  0  0  0  0
 18 20  1  0  0  0  0
 18 37  1  0  0  0  0
 19 22  1  0  0  0  0
 19 39  1  0  0  0  0
 20 22  2  0  0  0  0
 21 40  1  0  0  0  0
 23 24  1  0  0  0  0
 23 25  2  0  0  0  0
 24 26  2  0  0  0  0
 24 41  1  0  0  0  0
 25 42  1  0  0  0  0
 26 43  1  0  0  0  0
 27 44  1  0  0  0  0
 27 45  1  0  0  0  0
 27 46  1  0  0  0  0
 28 47  1  0  0  0  0
 28 48  1  0  0  0  0
 28 49  1  0  0  0  0
M  END
> <PUBCHEM_COMPOUND_CID>
10386217

> <PUBCHEM_COMPOUND_CANONICALIZED>
1

> <PUBCHEM_CACTVS_COMPLEXITY>
534

> <PUBCHEM_CACTVS_HBOND_ACCEPTOR>
7

> <PUBCHEM_CACTVS_HBOND_DONOR>
1

> <PUBCHEM_CACTVS_ROTATABLE_BOND>
4

> <PUBCHEM_CACTVS_SUBSKEYS>
AAADceB7sABAAAAAAAAAAAAAAAAAASAAAAA8WIAAAAAAAACx/AAAHgQQAAAADAzF3ga39/fIFAisAyZjdACDiKkxKrBJ2Dw+7JiNbqLk+duUNC5u1hvq6Cew0BMOIEABAgACQABAgAIEAASAAAAAAAAAAA==

> <PUBCHEM_IUPAC_OPENEYE_NAME>
4-(6,7-dimethoxyquinazolin-4-yl)-N-(3-thienyl)piperazine-1-carboxamide

> <PUBCHEM_IUPAC_CAS_NAME>
4-(6,7-dimethoxy-4-quinazolinyl)-N-(3-thiophenyl)-1-piperazinecarboxamide

> <PUBCHEM_IUPAC_NAME_MARKUP>
4-(6,7-dimethoxyquinazolin-4-yl)-<I>N</I>-thiophen-3-ylpiperazine-1-carboxamide

> <PUBCHEM_IUPAC_NAME>
4-(6,7-dimethoxyquinazolin-4-yl)-N-thiophen-3-ylpiperazine-1-carboxamide

> <PUBCHEM_IUPAC_SYSTEMATIC_NAME>
4-(6,7-dimethoxyquinazolin-4-yl)-N-thiophen-3-yl-piperazine-1-carboxamide

> <PUBCHEM_IUPAC_TRADITIONAL_NAME>
4-(6,7-dimethoxyquinazolin-4-yl)-N-(3-thienyl)piperazine-1-carboxamide

> <PUBCHEM_IUPAC_INCHI>
InChI=1S/C19H21N5O3S/c1-26-16-9-14-15(10-17(16)27-2)20-12-21-18(14)23-4-6-24(7-5-23)19(25)22-13-3-8-28-11-13/h3,8-12H,4-7H2,1-2H3,(H,22,25)

> <PUBCHEM_IUPAC_INCHIKEY>
SACBQFMSEKIABM-UHFFFAOYSA-N

> <PUBCHEM_XLOGP3_AA>
2.3

> <PUBCHEM_EXACT_MASS>
399.13651072

> <PUBCHEM_MOLECULAR_FORMULA>
C19H21N5O3S

> <PUBCHEM_MOLECULAR_WEIGHT>
399.5

> <PUBCHEM_SMILES>
COC1=C(C=C2C(=C1)C(=NC=N2)N3CCN(CC3)C(=O)NC4=CSC=C4)OC

> <PUBCHEM_OPENEYE_CAN_SMILES>
COC1=C(C=C2C(=C1)C(=NC=N2)N3CCN(CC3)C(=O)NC4=CSC=C4)OC

> <PUBCHEM_OPENEYE_ISO_SMILES>
COC1=C(C=C2C(=C1)C(=NC=N2)N3CCN(CC3)C(=O)NC4=CSC=C4)OC

> <PUBCHEM_CACTVS_TPSA>
108

> <PUBCHEM_MONOISOTOPIC_WEIGHT>
399.13651072

> <PUBCHEM_TOTAL_CHARGE>
0

> <PUBCHEM_HEAVY_ATOM_COUNT>
28

> <PUBCHEM_ATOM_DEF_STEREO_COUNT>
0

> <PUBCHEM_ATOM_UDEF_STEREO_COUNT>
0

> <PUBCHEM_BOND_DEF_STEREO_COUNT>
0

> <PUBCHEM_BOND_UDEF_STEREO_COUNT>
0

> <PUBCHEM_ISOTOPIC_ATOM_COUNT>
0

> <PUBCHEM_COMPONENT_COUNT>
1

> <PUBCHEM_CACTVS_TAUTO_COUNT>
-1

> <PUBCHEM_COORDINATE_TYPE>
1
5
255

> <PUBCHEM_BONDANNOTATIONS>
1  25  8
1  26  8
14  15  8
15  17  8
15  18  8
17  19  8
18  20  8
19  22  8
20  22  8
23  24  8
23  25  8
24  26  8
7  14  8
7  21  8
9  17  8
9  21  8

$$$$
