24905312
  -OEChem-03192523392D

 38 41  0     1  0  0  0  0  0999 V2000
    5.9209    4.2850    0.0000 Cl  0  0  0  0  0  0  0  0  0  0  0  0
    7.2566    2.7964    0.0000 O   0  0  0  0  0  0  0  0  0  0  0  0
    4.6783   -1.1265    0.0000 N   0  0  0  0  0  0  0  0  0  0  0  0
    4.9917   -3.6951    0.0000 N   0  0  0  0  0  0  0  0  0  0  0  0
    5.2619   -0.3218    0.0000 N   0  0  0  0  0  0  0  0  0  0  0  0
    2.8660   -1.3218    0.0000 N   0  0  0  0  0  0  0  0  0  0  0  0
    2.0000    0.1782    0.0000 N   0  0  0  0  0  0  0  0  0  0  0  0
    2.8660    1.6782    0.0000 N   0  0  0  0  0  0  0  0  0  0  0  0
    4.9889   -2.0770    0.0000 C   0  0  2  0  0  0  0  0  0  0  0  0
    5.9405   -2.3844    0.0000 C   0  0  0  0  0  0  0  0  0  0  0  0
    4.4026   -2.8871    0.0000 C   0  0  0  0  0  0  0  0  0  0  0  0
    5.9422   -3.3844    0.0000 C   0  0  0  0  0  0  0  0  0  0  0  0
    3.7320   -0.8218    0.0000 C   0  0  0  0  0  0  0  0  0  0  0  0
    3.7320    0.1782    0.0000 C   0  0  0  0  0  0  0  0  0  0  0  0
    4.6783    0.4830    0.0000 C   0  0  0  0  0  0  0  0  0  0  0  0
    4.9889    1.4335    0.0000 C   0  0  0  0  0  0  0  0  0  0  0  0
    2.8660    0.6782    0.0000 C   0  0  0  0  0  0  0  0  0  0  0  0
    2.0000   -0.8218    0.0000 C   0  0  0  0  0  0  0  0  0  0  0  0
    5.9674    1.6397    0.0000 C   0  0  0  0  0  0  0  0  0  0  0  0
    4.3211    2.1778    0.0000 C   0  0  0  0  0  0  0  0  0  0  0  0
    6.2781    2.5902    0.0000 C   0  0  0  0  0  0  0  0  0  0  0  0
    4.6318    3.1283    0.0000 C   0  0  0  0  0  0  0  0  0  0  0  0
    5.6103    3.3345    0.0000 C   0  0  0  0  0  0  0  0  0  0  0  0
    5.4266   -1.6379    0.0000 H   0  0  0  0  0  0  0  0  0  0  0  0
    6.5572   -2.4481    0.0000 H   0  0  0  0  0  0  0  0  0  0  0  0
    6.0684   -1.7777    0.0000 H   0  0  0  0  0  0  0  0  0  0  0  0
    3.9411   -2.4730    0.0000 H   0  0  0  0  0  0  0  0  0  0  0  0
    3.9425   -3.3027    0.0000 H   0  0  0  0  0  0  0  0  0  0  0  0
    6.0722   -3.9906    0.0000 H   0  0  0  0  0  0  0  0  0  0  0  0
    6.5587   -3.3185    0.0000 H   0  0  0  0  0  0  0  0  0  0  0  0
    4.8012   -4.2850    0.0000 H   0  0  0  0  0  0  0  0  0  0  0  0
    6.3815    1.1782    0.0000 H   0  0  0  0  0  0  0  0  0  0  0  0
    1.4631   -1.1318    0.0000 H   0  0  0  0  0  0  0  0  0  0  0  0
    3.7144    2.0499    0.0000 H   0  0  0  0  0  0  0  0  0  0  0  0
    2.3291    1.9882    0.0000 H   0  0  0  0  0  0  0  0  0  0  0  0
    3.4030    1.9882    0.0000 H   0  0  0  0  0  0  0  0  0  0  0  0
    4.2177    3.5898    0.0000 H   0  0  0  0  0  0  0  0  0  0  0  0
    7.6707    2.3350    0.0000 H   0  0  0  0  0  0  0  0  0  0  0  0
  1 23  1  0  0  0  0
  2 21  1  0  0  0  0
  2 38  1  0  0  0  0
  3  5  1  0  0  0  0
  9  3  1  6  0  0  0
  3 13  1  0  0  0  0
  4 11  1  0  0  0  0
  4 12  1  0  0  0  0
  4 31  1  0  0  0  0
  5 15  2  0  0  0  0
  6 13  2  0  0  0  0
  6 18  1  0  0  0  0
  7 17  1  0  0  0  0
  7 18  2  0  0  0  0
  8 17  1  0  0  0  0
  8 35  1  0  0  0  0
  8 36  1  0  0  0  0
  9 10  1  0  0  0  0
  9 11  1  0  0  0  0
  9 24  1  0  0  0  0
 10 12  1  0  0  0  0
 10 25  1  0  0  0  0
 10 26  1  0  0  0  0
 11 27  1  0  0  0  0
 11 28  1  0  0  0  0
 12 29  1  0  0  0  0
 12 30  1  0  0  0  0
 13 14  1  0  0  0  0
 14 15  1  0  0  0  0
 14 17  2  0  0  0  0
 15 16  1  0  0  0  0
 16 19  2  0  0  0  0
 16 20  1  0  0  0  0
 18 33  1  0  0  0  0
 19 21  1  0  0  0  0
 19 32  1  0  0  0  0
 20 22  2  0  0  0  0
 20 34  1  0  0  0  0
 21 23  2  0  0  0  0
 22 23  1  0  0  0  0
 22 37  1  0  0  0  0
M  END
> <PUBCHEM_COMPOUND_CID>
24905312

> <PUBCHEM_COMPOUND_CANONICALIZED>
1

> <PUBCHEM_CACTVS_COMPLEXITY>
429

> <PUBCHEM_CACTVS_HBOND_ACCEPTOR>
6

> <PUBCHEM_CACTVS_HBOND_DONOR>
3

> <PUBCHEM_CACTVS_ROTATABLE_BOND>
2

> <PUBCHEM_CACTVS_SUBSKEYS>
AAADccBzoAAEAAAAAAAAAAAAAAAAAWLAAAA8QAAAAAAAAFgB/AAAHgIYCAAADC7BnyQ1tt7IEgCiAyZjZACShCsxpeAd2KAuT5iIbqLD29OU9Ahs2BPI2CewwPAOBAABAAAACAAIAAIAAAAQAAAAAAAAAA==

> <PUBCHEM_IUPAC_OPENEYE_NAME>
5-[4-amino-1-[(3R)-pyrrolidin-3-yl]pyrazolo[3,4-d]pyrimidin-3-yl]-2-chloro-phenol

> <PUBCHEM_IUPAC_CAS_NAME>
5-[4-amino-1-[(3R)-3-pyrrolidinyl]-3-pyrazolo[3,4-d]pyrimidinyl]-2-chlorophenol

> <PUBCHEM_IUPAC_NAME_MARKUP>
5-[4-amino-1-[(3<I>R</I>)-pyrrolidin-3-yl]pyrazolo[3,4-d]pyrimidin-3-yl]-2-chlorophenol

> <PUBCHEM_IUPAC_NAME>
5-[4-amino-1-[(3R)-pyrrolidin-3-yl]pyrazolo[3,4-d]pyrimidin-3-yl]-2-chlorophenol

> <PUBCHEM_IUPAC_SYSTEMATIC_NAME>
5-[4-azanyl-1-[(3R)-pyrrolidin-3-yl]pyrazolo[3,4-d]pyrimidin-3-yl]-2-chloranyl-phenol

> <PUBCHEM_IUPAC_TRADITIONAL_NAME>
5-[4-amino-1-[(3R)-pyrrolidin-3-yl]pyrazolo[3,4-d]pyrimidin-3-yl]-2-chloro-phenol

> <PUBCHEM_IUPAC_INCHI>
InChI=1S/C15H15ClN6O/c16-10-2-1-8(5-11(10)23)13-12-14(17)19-7-20-15(12)22(21-13)9-3-4-18-6-9/h1-2,5,7,9,18,23H,3-4,6H2,(H2,17,19,20)/t9-/m1/s1

> <PUBCHEM_IUPAC_INCHIKEY>
UBJGLXSFXKIIFY-SECBINFHSA-N

> <PUBCHEM_XLOGP3_AA>
1.4

> <PUBCHEM_EXACT_MASS>
330.0995868

> <PUBCHEM_MOLECULAR_FORMULA>
C15H15ClN6O

> <PUBCHEM_MOLECULAR_WEIGHT>
330.77

> <PUBCHEM_SMILES>
C1CNC[C@@H]1N2C3=NC=NC(=C3C(=N2)C4=CC(=C(C=C4)Cl)O)N

> <PUBCHEM_OPENEYE_CAN_SMILES>
C1CNCC1N2C3=NC=NC(=C3C(=N2)C4=CC(=C(C=C4)Cl)O)N

> <PUBCHEM_OPENEYE_ISO_SMILES>
C1CNC[C@@H]1N2C3=NC=NC(=C3C(=N2)C4=CC(=C(C=C4)Cl)O)N

> <PUBCHEM_CACTVS_TPSA>
102

> <PUBCHEM_MONOISOTOPIC_WEIGHT>
330.0995868

> <PUBCHEM_TOTAL_CHARGE>
0

> <PUBCHEM_HEAVY_ATOM_COUNT>
23

> <PUBCHEM_ATOM_DEF_STEREO_COUNT>
1

> <PUBCHEM_ATOM_UDEF_STEREO_COUNT>
0

> <PUBCHEM_BOND_DEF_STEREO_COUNT>
0

> <PUBCHEM_BOND_UDEF_STEREO_COUNT>
0

> <PUBCHEM_ISOTOPIC_ATOM_COUNT>
0

> <PUBCHEM_COMPONENT_COUNT>
1

> <PUBCHEM_CACTVS_TAUTO_COUNT>
-1

> <PUBCHEM_COORDINATE_TYPE>
1
5
255

> <PUBCHEM_BONDANNOTATIONS>
13  14  8
14  15  8
14  17  8
16  19  8
16  20  8
19  21  8
20  22  8
21  23  8
22  23  8
3  13  8
3  5  8
9  3  6
5  15  8
6  13  8
6  18  8
7  17  8
7  18  8

$$$$
