5328112
  -OEChem-03202507042D

 45 47  0     0  0  0  0  0  0999 V2000
    2.7320    1.2010    0.0000 Cl  0  0  0  0  0  0  0  0  0  0  0  0
    5.7320    2.9330    0.0000 Cl  0  0  0  0  0  0  0  0  0  0  0  0
    4.7320   -1.7990    0.0000 O   0  0  0  0  0  0  0  0  0  0  0  0
    3.0000   -1.7990    0.0000 N   0  0  0  0  0  0  0  0  0  0  0  0
    3.8660   -0.2990    0.0000 N   0  0  0  0  0  0  0  0  0  0  0  0
    5.5981   -0.2990    0.0000 N   0  0  0  0  0  0  0  0  0  0  0  0
    7.3580   -0.3337    0.0000 N   0  0  0  0  0  0  0  0  0  0  0  0
    8.2641    1.2218    0.0000 N   0  0  0  0  0  0  0  0  0  0  0  0
    9.1282   -0.3232    0.0000 N   0  0  0  0  0  0  0  0  0  0  0  0
    3.0000   -2.7990    0.0000 C   0  0  0  0  0  0  0  0  0  0  0  0
    3.0000   -3.7990    0.0000 C   0  0  0  0  0  0  0  0  0  0  0  0
    2.0000   -2.7990    0.0000 C   0  0  0  0  0  0  0  0  0  0  0  0
    4.0000   -2.7990    0.0000 C   0  0  0  0  0  0  0  0  0  0  0  0
    3.8660   -1.2990    0.0000 C   0  0  0  0  0  0  0  0  0  0  0  0
    4.7320    1.2010    0.0000 C   0  0  0  0  0  0  0  0  0  0  0  0
    4.7320    0.2010    0.0000 C   0  0  0  0  0  0  0  0  0  0  0  0
    4.2320    2.0670    0.0000 C   0  0  0  0  0  0  0  0  0  0  0  0
    5.5981    1.7010    0.0000 C   0  0  0  0  0  0  0  0  0  0  0  0
    6.4641    1.2010    0.0000 C   0  0  0  0  0  0  0  0  0  0  0  0
    6.4641    0.2010    0.0000 C   0  0  0  0  0  0  0  0  0  0  0  0
    3.2321    2.0671    0.0000 C   0  0  0  0  0  0  0  0  0  0  0  0
    4.7320    2.9330    0.0000 C   0  0  0  0  0  0  0  0  0  0  0  0
    7.3580    1.7356    0.0000 C   0  0  0  0  0  0  0  0  0  0  0  0
    2.7320    2.9330    0.0000 C   0  0  0  0  0  0  0  0  0  0  0  0
    4.2320    3.7990    0.0000 C   0  0  0  0  0  0  0  0  0  0  0  0
    3.2320    3.7990    0.0000 C   0  0  0  0  0  0  0  0  0  0  0  0
    8.2641    0.1801    0.0000 C   0  0  0  0  0  0  0  0  0  0  0  0
    2.3800   -3.7990    0.0000 H   0  0  0  0  0  0  0  0  0  0  0  0
    3.0000   -4.4190    0.0000 H   0  0  0  0  0  0  0  0  0  0  0  0
    3.6200   -3.7990    0.0000 H   0  0  0  0  0  0  0  0  0  0  0  0
    2.0000   -2.1790    0.0000 H   0  0  0  0  0  0  0  0  0  0  0  0
    1.3800   -2.7990    0.0000 H   0  0  0  0  0  0  0  0  0  0  0  0
    2.0000   -3.4190    0.0000 H   0  0  0  0  0  0  0  0  0  0  0  0
    4.0000   -3.4190    0.0000 H   0  0  0  0  0  0  0  0  0  0  0  0
    4.6200   -2.7990    0.0000 H   0  0  0  0  0  0  0  0  0  0  0  0
    4.0000   -2.1790    0.0000 H   0  0  0  0  0  0  0  0  0  0  0  0
    2.4631   -1.4890    0.0000 H   0  0  0  0  0  0  0  0  0  0  0  0
    3.3291    0.0110    0.0000 H   0  0  0  0  0  0  0  0  0  0  0  0
    5.5981    2.3210    0.0000 H   0  0  0  0  0  0  0  0  0  0  0  0
    7.3509    2.3556    0.0000 H   0  0  0  0  0  0  0  0  0  0  0  0
    2.1120    2.9330    0.0000 H   0  0  0  0  0  0  0  0  0  0  0  0
    4.5420    4.3360    0.0000 H   0  0  0  0  0  0  0  0  0  0  0  0
    2.9220    4.3360    0.0000 H   0  0  0  0  0  0  0  0  0  0  0  0
    9.6663   -0.0153    0.0000 H   0  0  0  0  0  0  0  0  0  0  0  0
    9.1258   -0.9432    0.0000 H   0  0  0  0  0  0  0  0  0  0  0  0
  1 21  1  0  0  0  0
  2 22  1  0  0  0  0
  3 14  2  0  0  0  0
  4 10  1  0  0  0  0
  4 14  1  0  0  0  0
  4 37  1  0  0  0  0
  5 14  1  0  0  0  0
  5 16  1  0  0  0  0
  5 38  1  0  0  0  0
  6 16  1  0  0  0  0
  6 20  2  0  0  0  0
  7 20  1  0  0  0  0
  7 27  2  0  0  0  0
  8 23  2  0  0  0  0
  8 27  1  0  0  0  0
  9 27  1  0  0  0  0
  9 44  1  0  0  0  0
  9 45  1  0  0  0  0
 10 11  1  0  0  0  0
 10 12  1  0  0  0  0
 10 13  1  0  0  0  0
 11 28  1  0  0  0  0
 11 29  1  0  0  0  0
 11 30  1  0  0  0  0
 12 31  1  0  0  0  0
 12 32  1  0  0  0  0
 12 33  1  0  0  0  0
 13 34  1  0  0  0  0
 13 35  1  0  0  0  0
 13 36  1  0  0  0  0
 15 16  2  0  0  0  0
 15 17  1  0  0  0  0
 15 18  1  0  0  0  0
 17 21  2  0  0  0  0
 17 22  1  0  0  0  0
 18 19  2  0  0  0  0
 18 39  1  0  0  0  0
 19 20  1  0  0  0  0
 19 23  1  0  0  0  0
 21 24  1  0  0  0  0
 22 25  2  0  0  0  0
 23 40  1  0  0  0  0
 24 26  2  0  0  0  0
 24 41  1  0  0  0  0
 25 26  1  0  0  0  0
 25 42  1  0  0  0  0
 26 43  1  0  0  0  0
M  END
> <PUBCHEM_COMPOUND_CID>
5328112

> <PUBCHEM_COMPOUND_CANONICALIZED>
1

> <PUBCHEM_CACTVS_COMPLEXITY>
520

> <PUBCHEM_CACTVS_HBOND_ACCEPTOR>
5

> <PUBCHEM_CACTVS_HBOND_DONOR>
3

> <PUBCHEM_CACTVS_ROTATABLE_BOND>
3

> <PUBCHEM_CACTVS_SUBSKEYS>
AAADceB7oAAGAAAAAAAAAAAAAAAAAAAAAAA8WIAAAAAAAACx/AAAHgIQAAAADIrBGyQ/sN7IEACoAjJndACCgCkxBaAJ2CAoRpiIKOLB29GEJAholQLIyCcQgMAOgAAAAACBAAAAAAAAAQIAAAAAAAAAAA==

> <PUBCHEM_IUPAC_OPENEYE_NAME>
1-[2-amino-6-(2,6-dichlorophenyl)pyrido[2,3-d]pyrimidin-7-yl]-3-tert-butyl-urea

> <PUBCHEM_IUPAC_CAS_NAME>
1-[2-amino-6-(2,6-dichlorophenyl)-7-pyrido[2,3-d]pyrimidinyl]-3-tert-butylurea

> <PUBCHEM_IUPAC_NAME_MARKUP>
1-[2-amino-6-(2,6-dichlorophenyl)pyrido[2,3-d]pyrimidin-7-yl]-3-<I>tert</I>-butylurea

> <PUBCHEM_IUPAC_NAME>
1-[2-amino-6-(2,6-dichlorophenyl)pyrido[2,3-d]pyrimidin-7-yl]-3-tert-butylurea

> <PUBCHEM_IUPAC_SYSTEMATIC_NAME>
1-[2-azanyl-6-[2,6-bis(chloranyl)phenyl]pyrido[2,3-d]pyrimidin-7-yl]-3-tert-butyl-urea

> <PUBCHEM_IUPAC_TRADITIONAL_NAME>
1-[2-amino-6-(2,6-dichlorophenyl)pyrido[2,3-d]pyrimidin-7-yl]-3-tert-butyl-urea

> <PUBCHEM_IUPAC_INCHI>
InChI=1S/C18H18Cl2N6O/c1-18(2,3)26-17(27)25-15-10(13-11(19)5-4-6-12(13)20)7-9-8-22-16(21)24-14(9)23-15/h4-8H,1-3H3,(H4,21,22,23,24,25,26,27)

> <PUBCHEM_IUPAC_INCHIKEY>
RRWSNCZYJCOEFX-UHFFFAOYSA-N

> <PUBCHEM_XLOGP3_AA>
3.7

> <PUBCHEM_EXACT_MASS>
404.0919146

> <PUBCHEM_MOLECULAR_FORMULA>
C18H18Cl2N6O

> <PUBCHEM_MOLECULAR_WEIGHT>
405.3

> <PUBCHEM_SMILES>
CC(C)(C)NC(=O)NC1=C(C=C2C=NC(=NC2=N1)N)C3=C(C=CC=C3Cl)Cl

> <PUBCHEM_OPENEYE_CAN_SMILES>
CC(C)(C)NC(=O)NC1=C(C=C2C=NC(=NC2=N1)N)C3=C(C=CC=C3Cl)Cl

> <PUBCHEM_OPENEYE_ISO_SMILES>
CC(C)(C)NC(=O)NC1=C(C=C2C=NC(=NC2=N1)N)C3=C(C=CC=C3Cl)Cl

> <PUBCHEM_CACTVS_TPSA>
106

> <PUBCHEM_MONOISOTOPIC_WEIGHT>
404.0919146

> <PUBCHEM_TOTAL_CHARGE>
0

> <PUBCHEM_HEAVY_ATOM_COUNT>
27

> <PUBCHEM_ATOM_DEF_STEREO_COUNT>
0

> <PUBCHEM_ATOM_UDEF_STEREO_COUNT>
0

> <PUBCHEM_BOND_DEF_STEREO_COUNT>
0

> <PUBCHEM_BOND_UDEF_STEREO_COUNT>
0

> <PUBCHEM_ISOTOPIC_ATOM_COUNT>
0

> <PUBCHEM_COMPONENT_COUNT>
1

> <PUBCHEM_CACTVS_TAUTO_COUNT>
-1

> <PUBCHEM_COORDINATE_TYPE>
1
5
255

> <PUBCHEM_BONDANNOTATIONS>
15  16  8
15  18  8
17  21  8
17  22  8
18  19  8
19  20  8
19  23  8
21  24  8
22  25  8
24  26  8
25  26  8
6  16  8
6  20  8
7  20  8
7  27  8
8  23  8
8  27  8

$$$$
