23829003
  -OEChem-03202504062D

 35 37  0     0  0  0  0  0  0999 V2000
    5.8940    2.5363    0.0000 O   0  0  0  0  0  0  0  0  0  0  0  0
    7.6679    1.5122    0.0000 O   0  0  0  0  0  0  0  0  0  0  0  0
    2.8930    0.7223    0.0000 O   0  0  0  0  0  0  0  0  0  0  0  0
    2.8930   -2.7882    0.0000 O   0  0  0  0  0  0  0  0  0  0  0  0
    5.0158   -2.0330    0.0000 N   0  0  0  0  0  0  0  0  0  0  0  0
    2.6200   -1.0330    0.0000 N   0  0  0  0  0  0  0  0  0  0  0  0
    5.0158   -0.0330    0.0000 C   0  0  0  0  0  0  0  0  0  0  0  0
    5.8819   -0.5330    0.0000 C   0  0  0  0  0  0  0  0  0  0  0  0
    4.1498   -0.5330    0.0000 C   0  0  0  0  0  0  0  0  0  0  0  0
    5.8819   -1.5330    0.0000 C   0  0  0  0  0  0  0  0  0  0  0  0
    4.1498   -1.5330    0.0000 C   0  0  0  0  0  0  0  0  0  0  0  0
    6.7479   -2.0330    0.0000 C   0  0  0  0  0  0  0  0  0  0  0  0
    4.9998    1.0086    0.0000 C   0  0  0  0  0  0  0  0  0  0  0  0
    6.7919   -0.0261    0.0000 C   0  0  0  0  0  0  0  0  0  0  0  0
    3.2036   -0.2282    0.0000 C   0  0  0  0  0  0  0  0  0  0  0  0
    5.8978    1.5363    0.0000 C   0  0  0  0  0  0  0  0  0  0  0  0
    6.7999    1.0155    0.0000 C   0  0  0  0  0  0  0  0  0  0  0  0
    3.2036   -1.8377    0.0000 C   0  0  0  0  0  0  0  0  0  0  0  0
    6.7479   -3.0330    0.0000 C   0  0  0  0  0  0  0  0  0  0  0  0
    5.0260    3.0330    0.0000 C   0  0  0  0  0  0  0  0  0  0  0  0
    8.5320    1.0088    0.0000 C   0  0  0  0  0  0  0  0  0  0  0  0
    7.3585   -2.1406    0.0000 H   0  0  0  0  0  0  0  0  0  0  0  0
    6.9600   -1.4504    0.0000 H   0  0  0  0  0  0  0  0  0  0  0  0
    4.4593    1.3123    0.0000 H   0  0  0  0  0  0  0  0  0  0  0  0
    7.3252   -0.3423    0.0000 H   0  0  0  0  0  0  0  0  0  0  0  0
    2.0000   -1.0330    0.0000 H   0  0  0  0  0  0  0  0  0  0  0  0
    6.1279   -3.0330    0.0000 H   0  0  0  0  0  0  0  0  0  0  0  0
    6.7479   -3.6530    0.0000 H   0  0  0  0  0  0  0  0  0  0  0  0
    7.3679   -3.0330    0.0000 H   0  0  0  0  0  0  0  0  0  0  0  0
    5.3340    3.5711    0.0000 H   0  0  0  0  0  0  0  0  0  0  0  0
    4.4879    3.3409    0.0000 H   0  0  0  0  0  0  0  0  0  0  0  0
    4.7181    2.4948    0.0000 H   0  0  0  0  0  0  0  0  0  0  0  0
    8.2199    0.4731    0.0000 H   0  0  0  0  0  0  0  0  0  0  0  0
    9.0677    0.6967    0.0000 H   0  0  0  0  0  0  0  0  0  0  0  0
    8.8440    1.5446    0.0000 H   0  0  0  0  0  0  0  0  0  0  0  0
  1 16  1  0  0  0  0
  1 20  1  0  0  0  0
  2 17  1  0  0  0  0
  2 21  1  0  0  0  0
  3 15  2  0  0  0  0
  4 18  2  0  0  0  0
  5 10  2  0  0  0  0
  5 11  1  0  0  0  0
  6 15  1  0  0  0  0
  6 18  1  0  0  0  0
  6 26  1  0  0  0  0
  7  8  1  0  0  0  0
  7  9  1  0  0  0  0
  7 13  2  0  0  0  0
  8 10  1  0  0  0  0
  8 14  2  0  0  0  0
  9 11  2  0  0  0  0
  9 15  1  0  0  0  0
 10 12  1  0  0  0  0
 11 18  1  0  0  0  0
 12 19  1  0  0  0  0
 12 22  1  0  0  0  0
 12 23  1  0  0  0  0
 13 16  1  0  0  0  0
 13 24  1  0  0  0  0
 14 17  1  0  0  0  0
 14 25  1  0  0  0  0
 16 17  2  0  0  0  0
 19 27  1  0  0  0  0
 19 28  1  0  0  0  0
 19 29  1  0  0  0  0
 20 30  1  0  0  0  0
 20 31  1  0  0  0  0
 20 32  1  0  0  0  0
 21 33  1  0  0  0  0
 21 34  1  0  0  0  0
 21 35  1  0  0  0  0
M  END
> <PUBCHEM_COMPOUND_CID>
23829003

> <PUBCHEM_COMPOUND_CANONICALIZED>
1

> <PUBCHEM_CACTVS_COMPLEXITY>
441

> <PUBCHEM_CACTVS_HBOND_ACCEPTOR>
5

> <PUBCHEM_CACTVS_HBOND_DONOR>
1

> <PUBCHEM_CACTVS_ROTATABLE_BOND>
3

> <PUBCHEM_CACTVS_SUBSKEYS>
AAADccBzOAAAAAAAAAAAAAAAAAAAAWAAAAA8QAAAAAAAAFix8AAAHgAQAAAADAyBngIyhtLIFACoAyVyVACCiCAnICAAmCG2zNgNZvrE9LuUMapkxDHK6Ue93fPeoAABAAAQQABAAAIAACCAAAAAAAAAAA==

> <PUBCHEM_IUPAC_OPENEYE_NAME>
5-ethyl-7,8-dimethoxy-pyrrolo[3,4-c]isoquinoline-1,3-dione

> <PUBCHEM_IUPAC_CAS_NAME>
5-ethyl-7,8-dimethoxypyrrolo[3,4-c]isoquinoline-1,3-dione

> <PUBCHEM_IUPAC_NAME_MARKUP>
5-ethyl-7,8-dimethoxypyrrolo[3,4-c]isoquinoline-1,3-dione

> <PUBCHEM_IUPAC_NAME>
5-ethyl-7,8-dimethoxypyrrolo[3,4-c]isoquinoline-1,3-dione

> <PUBCHEM_IUPAC_SYSTEMATIC_NAME>
5-ethyl-7,8-dimethoxy-pyrrolo[3,4-c]isoquinoline-1,3-dione

> <PUBCHEM_IUPAC_TRADITIONAL_NAME>
5-ethyl-7,8-dimethoxy-pyrrol[3,4-c]isoquinoline-1,3-quinone

> <PUBCHEM_IUPAC_INCHI>
InChI=1S/C15H14N2O4/c1-4-9-7-5-10(20-2)11(21-3)6-8(7)12-13(16-9)15(19)17-14(12)18/h5-6H,4H2,1-3H3,(H,17,18,19)

> <PUBCHEM_IUPAC_INCHIKEY>
ULVWJFBHQIXEPE-UHFFFAOYSA-N

> <PUBCHEM_XLOGP3_AA>
2

> <PUBCHEM_EXACT_MASS>
286.09535693

> <PUBCHEM_MOLECULAR_FORMULA>
C15H14N2O4

> <PUBCHEM_MOLECULAR_WEIGHT>
286.28

> <PUBCHEM_SMILES>
CCC1=NC2=C(C3=CC(=C(C=C31)OC)OC)C(=O)NC2=O

> <PUBCHEM_OPENEYE_CAN_SMILES>
CCC1=NC2=C(C3=CC(=C(C=C31)OC)OC)C(=O)NC2=O

> <PUBCHEM_OPENEYE_ISO_SMILES>
CCC1=NC2=C(C3=CC(=C(C=C31)OC)OC)C(=O)NC2=O

> <PUBCHEM_CACTVS_TPSA>
77.5

> <PUBCHEM_MONOISOTOPIC_WEIGHT>
286.09535693

> <PUBCHEM_TOTAL_CHARGE>
0

> <PUBCHEM_HEAVY_ATOM_COUNT>
21

> <PUBCHEM_ATOM_DEF_STEREO_COUNT>
0

> <PUBCHEM_ATOM_UDEF_STEREO_COUNT>
0

> <PUBCHEM_BOND_DEF_STEREO_COUNT>
0

> <PUBCHEM_BOND_UDEF_STEREO_COUNT>
0

> <PUBCHEM_ISOTOPIC_ATOM_COUNT>
0

> <PUBCHEM_COMPONENT_COUNT>
1

> <PUBCHEM_CACTVS_TAUTO_COUNT>
-1

> <PUBCHEM_COORDINATE_TYPE>
1
5
255

> <PUBCHEM_BONDANNOTATIONS>
13  16  8
14  17  8
16  17  8
5  10  8
5  11  8
7  13  8
7  8  8
7  9  8
8  10  8
8  14  8
9  11  8

$$$$
