46233287
  -OEChem-03202507092D

 71 75  0     0  0  0  0  0  0999 V2000
    9.8346    5.7473    0.0000 S   0  0  0  0  0  0  0  0  0  0  0  0
   10.7179    1.2506    0.0000 O   0  0  0  0  0  0  0  0  0  0  0  0
   10.8345    5.7511    0.0000 O   0  0  0  0  0  0  0  0  0  0  0  0
    8.8346    5.7434    0.0000 O   0  0  0  0  0  0  0  0  0  0  0  0
    4.0604   -6.3348    0.0000 O   0  0  0  0  0  0  0  0  0  0  0  0
    8.9859    1.2440    0.0000 N   0  0  0  0  0  0  0  0  0  0  0  0
    9.8384    4.7473    0.0000 N   0  0  0  0  0  0  0  0  0  0  0  0
    6.3936   -0.2660    0.0000 N   0  0  0  0  0  0  0  0  0  0  0  0
    5.4994   -1.7938    0.0000 N   0  0  0  0  0  0  0  0  0  0  0  0
    7.2995   -1.7868    0.0000 N   0  0  0  0  0  0  0  0  0  0  0  0
    3.7032   -3.0306    0.0000 N   0  0  0  0  0  0  0  0  0  0  0  0
    3.1196   -3.8353    0.0000 N   0  0  0  0  0  0  0  0  0  0  0  0
    2.4141   -5.7968    0.0000 N   0  0  0  0  0  0  0  0  0  0  0  0
    9.8461    2.7473    0.0000 C   0  0  0  0  0  0  0  0  0  0  0  0
    8.9782    3.2440    0.0000 C   0  0  0  0  0  0  0  0  0  0  0  0
   10.7102    3.2506    0.0000 C   0  0  0  0  0  0  0  0  0  0  0  0
    7.2577    0.2373    0.0000 C   0  0  0  0  0  0  0  0  0  0  0  0
    8.1179    1.7406    0.0000 C   0  0  0  0  0  0  0  0  0  0  0  0
    8.9897    0.2440    0.0000 C   0  0  0  0  0  0  0  0  0  0  0  0
    7.2538    1.2373    0.0000 C   0  0  0  0  0  0  0  0  0  0  0  0
    8.1256   -0.2594    0.0000 C   0  0  0  0  0  0  0  0  0  0  0  0
    8.9743    4.2440    0.0000 C   0  0  0  0  0  0  0  0  0  0  0  0
   10.7063    4.2506    0.0000 C   0  0  0  0  0  0  0  0  0  0  0  0
    9.8500    1.7473    0.0000 C   0  0  0  0  0  0  0  0  0  0  0  0
    6.3974   -1.2660    0.0000 C   0  0  0  0  0  0  0  0  0  0  0  0
    9.8307    6.7473    0.0000 C   0  0  0  0  0  0  0  0  0  0  0  0
    5.5155   -2.8353    0.0000 C   0  0  0  0  0  0  0  0  0  0  0  0
    6.3815   -3.3353    0.0000 C   0  0  0  0  0  0  0  0  0  0  0  0
    4.6494   -3.3353    0.0000 C   0  0  0  0  0  0  0  0  0  0  0  0
    6.3815   -4.3353    0.0000 C   0  0  0  0  0  0  0  0  0  0  0  0
    5.5155   -4.8353    0.0000 C   0  0  0  0  0  0  0  0  0  0  0  0
    4.6494   -4.3353    0.0000 C   0  0  0  0  0  0  0  0  0  0  0  0
    7.2915   -2.8284    0.0000 C   0  0  0  0  0  0  0  0  0  0  0  0
    3.7032   -4.6400    0.0000 C   0  0  0  0  0  0  0  0  0  0  0  0
    3.3926   -2.0800    0.0000 C   0  0  0  0  0  0  0  0  0  0  0  0
    3.3926   -5.5905    0.0000 C   0  0  0  0  0  0  0  0  0  0  0  0
    2.1034   -6.7473    0.0000 C   0  0  0  0  0  0  0  0  0  0  0  0
    9.3104    2.4352    0.0000 H   0  0  0  0  0  0  0  0  0  0  0  0
    8.3672    3.3493    0.0000 H   0  0  0  0  0  0  0  0  0  0  0  0
    8.7684    2.6605    0.0000 H   0  0  0  0  0  0  0  0  0  0  0  0
   10.9245    2.6688    0.0000 H   0  0  0  0  0  0  0  0  0  0  0  0
   11.3204    3.3606    0.0000 H   0  0  0  0  0  0  0  0  0  0  0  0
    7.2601   -0.3827    0.0000 H   0  0  0  0  0  0  0  0  0  0  0  0
    7.0395    1.8191    0.0000 H   0  0  0  0  0  0  0  0  0  0  0  0
    6.6437    1.1273    0.0000 H   0  0  0  0  0  0  0  0  0  0  0  0
    7.7289   -0.7358    0.0000 H   0  0  0  0  0  0  0  0  0  0  0  0
    8.5260   -0.7328    0.0000 H   0  0  0  0  0  0  0  0  0  0  0  0
    8.5146    2.2171    0.0000 H   0  0  0  0  0  0  0  0  0  0  0  0
    7.7176    2.2140    0.0000 H   0  0  0  0  0  0  0  0  0  0  0  0
    9.2040   -0.3378    0.0000 H   0  0  0  0  0  0  0  0  0  0  0  0
    9.5999    0.3540    0.0000 H   0  0  0  0  0  0  0  0  0  0  0  0
    8.7600    4.8257    0.0000 H   0  0  0  0  0  0  0  0  0  0  0  0
    8.3642    4.1339    0.0000 H   0  0  0  0  0  0  0  0  0  0  0  0
   11.3173    4.1453    0.0000 H   0  0  0  0  0  0  0  0  0  0  0  0
   10.9162    4.8341    0.0000 H   0  0  0  0  0  0  0  0  0  0  0  0
    5.8555    0.0419    0.0000 H   0  0  0  0  0  0  0  0  0  0  0  0
   10.4507    6.7497    0.0000 H   0  0  0  0  0  0  0  0  0  0  0  0
    9.8283    7.3673    0.0000 H   0  0  0  0  0  0  0  0  0  0  0  0
    9.2107    6.7449    0.0000 H   0  0  0  0  0  0  0  0  0  0  0  0
    6.5936   -4.9179    0.0000 H   0  0  0  0  0  0  0  0  0  0  0  0
    6.9921   -4.2276    0.0000 H   0  0  0  0  0  0  0  0  0  0  0  0
    5.1170   -5.3102    0.0000 H   0  0  0  0  0  0  0  0  0  0  0  0
    5.9140   -5.3102    0.0000 H   0  0  0  0  0  0  0  0  0  0  0  0
    7.8248   -3.1446    0.0000 H   0  0  0  0  0  0  0  0  0  0  0  0
    3.9819   -1.8874    0.0000 H   0  0  0  0  0  0  0  0  0  0  0  0
    3.2000   -1.4907    0.0000 H   0  0  0  0  0  0  0  0  0  0  0  0
    2.8032   -2.2726    0.0000 H   0  0  0  0  0  0  0  0  0  0  0  0
    2.0000   -5.3353    0.0000 H   0  0  0  0  0  0  0  0  0  0  0  0
    1.5141   -6.5547    0.0000 H   0  0  0  0  0  0  0  0  0  0  0  0
    1.9108   -7.3366    0.0000 H   0  0  0  0  0  0  0  0  0  0  0  0
    2.6927   -6.9399    0.0000 H   0  0  0  0  0  0  0  0  0  0  0  0
  1  3  2  0  0  0  0
  1  4  2  0  0  0  0
  1  7  1  0  0  0  0
  1 26  1  0  0  0  0
  2 24  2  0  0  0  0
  5 36  2  0  0  0  0
  6 18  1  0  0  0  0
  6 19  1  0  0  0  0
  6 24  1  0  0  0  0
  7 22  1  0  0  0  0
  7 23  1  0  0  0  0
  8 17  1  0  0  0  0
  8 25  1  0  0  0  0
  8 56  1  0  0  0  0
  9 25  1  0  0  0  0
  9 27  2  0  0  0  0
 10 25  2  0  0  0  0
 10 33  1  0  0  0  0
 11 12  1  0  0  0  0
 11 29  1  0  0  0  0
 11 35  1  0  0  0  0
 12 34  2  0  0  0  0
 13 36  1  0  0  0  0
 13 37  1  0  0  0  0
 13 68  1  0  0  0  0
 14 15  1  0  0  0  0
 14 16  1  0  0  0  0
 14 24  1  0  0  0  0
 14 38  1  0  0  0  0
 15 22  1  0  0  0  0
 15 39  1  0  0  0  0
 15 40  1  0  0  0  0
 16 23  1  0  0  0  0
 16 41  1  0  0  0  0
 16 42  1  0  0  0  0
 17 20  1  0  0  0  0
 17 21  1  0  0  0  0
 17 43  1  0  0  0  0
 18 20  1  0  0  0  0
 18 48  1  0  0  0  0
 18 49  1  0  0  0  0
 19 21  1  0  0  0  0
 19 50  1  0  0  0  0
 19 51  1  0  0  0  0
 20 44  1  0  0  0  0
 20 45  1  0  0  0  0
 21 46  1  0  0  0  0
 21 47  1  0  0  0  0
 22 52  1  0  0  0  0
 22 53  1  0  0  0  0
 23 54  1  0  0  0  0
 23 55  1  0  0  0  0
 26 57  1  0  0  0  0
 26 58  1  0  0  0  0
 26 59  1  0  0  0  0
 27 28  1  0  0  0  0
 27 29  1  0  0  0  0
 28 30  1  0  0  0  0
 28 33  2  0  0  0  0
 29 32  2  0  0  0  0
 30 31  1  0  0  0  0
 30 60  1  0  0  0  0
 30 61  1  0  0  0  0
 31 32  1  0  0  0  0
 31 62  1  0  0  0  0
 31 63  1  0  0  0  0
 32 34  1  0  0  0  0
 33 64  1  0  0  0  0
 34 36  1  0  0  0  0
 35 65  1  0  0  0  0
 35 66  1  0  0  0  0
 35 67  1  0  0  0  0
 37 69  1  0  0  0  0
 37 70  1  0  0  0  0
 37 71  1  0  0  0  0
M  END
> <PUBCHEM_COMPOUND_CID>
46233287

> <PUBCHEM_COMPOUND_CANONICALIZED>
1

> <PUBCHEM_CACTVS_COMPLEXITY>
945

> <PUBCHEM_CACTVS_HBOND_ACCEPTOR>
9

> <PUBCHEM_CACTVS_HBOND_DONOR>
2

> <PUBCHEM_CACTVS_ROTATABLE_BOND>
5

> <PUBCHEM_CACTVS_SUBSKEYS>
AAADcfB7+ABAAAAAAAAAAAAAAAAAAWAAAAA8WLEAAAAAAFix4AAAHgQYQAAADSjBngSvkJfIEAKqAxV3dHCShCk3gKAR2KGoRNiIaLLA3dGUpQhongLIySccicCeAAAAAAAAAACAAACAAAQAQAAAAAAAAA==

> <PUBCHEM_IUPAC_OPENEYE_NAME>
N,1-dimethyl-8-[[1-(1-methylsulfonylpiperidine-4-carbonyl)-4-piperidyl]amino]-4,5-dihydropyrazolo[4,3-h]quinazoline-3-carboxamide

> <PUBCHEM_IUPAC_CAS_NAME>
N,1-dimethyl-8-[[1-[(1-methylsulfonyl-4-piperidinyl)-oxomethyl]-4-piperidinyl]amino]-4,5-dihydropyrazolo[4,3-h]quinazoline-3-carboxamide

> <PUBCHEM_IUPAC_NAME_MARKUP>
<I>N</I>,1-dimethyl-8-[[1-(1-methylsulfonylpiperidine-4-carbonyl)piperidin-4-yl]amino]-4,5-dihydropyrazolo[4,3-h]quinazoline-3-carboxamide

> <PUBCHEM_IUPAC_NAME>
N,1-dimethyl-8-[[1-(1-methylsulfonylpiperidine-4-carbonyl)piperidin-4-yl]amino]-4,5-dihydropyrazolo[4,3-h]quinazoline-3-carboxamide

> <PUBCHEM_IUPAC_SYSTEMATIC_NAME>
N,1-dimethyl-8-[[1-(1-methylsulfonylpiperidin-4-yl)carbonylpiperidin-4-yl]amino]-4,5-dihydropyrazolo[4,3-h]quinazoline-3-carboxamide

> <PUBCHEM_IUPAC_TRADITIONAL_NAME>
8-[[1-(1-mesylisonipecotoyl)-4-piperidyl]amino]-N,1-dimethyl-4,5-dihydropyrazolo[4,3-h]quinazoline-3-carboxamide

> <PUBCHEM_IUPAC_INCHI>
InChI=1S/C24H34N8O4S/c1-25-22(33)20-18-5-4-16-14-26-24(28-19(16)21(18)30(2)29-20)27-17-8-10-31(11-9-17)23(34)15-6-12-32(13-7-15)37(3,35)36/h14-15,17H,4-13H2,1-3H3,(H,25,33)(H,26,27,28)

> <PUBCHEM_IUPAC_INCHIKEY>
KOLSEKSFVMGHDV-UHFFFAOYSA-N

> <PUBCHEM_XLOGP3_AA>
0.2

> <PUBCHEM_EXACT_MASS>
530.24237277

> <PUBCHEM_MOLECULAR_FORMULA>
C24H34N8O4S

> <PUBCHEM_MOLECULAR_WEIGHT>
530.6

> <PUBCHEM_SMILES>
CNC(=O)C1=NN(C2=C1CCC3=CN=C(N=C32)NC4CCN(CC4)C(=O)C5CCN(CC5)S(=O)(=O)C)C

> <PUBCHEM_OPENEYE_CAN_SMILES>
CNC(=O)C1=NN(C2=C1CCC3=CN=C(N=C32)NC4CCN(CC4)C(=O)C5CCN(CC5)S(=O)(=O)C)C

> <PUBCHEM_OPENEYE_ISO_SMILES>
CNC(=O)C1=NN(C2=C1CCC3=CN=C(N=C32)NC4CCN(CC4)C(=O)C5CCN(CC5)S(=O)(=O)C)C

> <PUBCHEM_CACTVS_TPSA>
151

> <PUBCHEM_MONOISOTOPIC_WEIGHT>
530.24237277

> <PUBCHEM_TOTAL_CHARGE>
0

> <PUBCHEM_HEAVY_ATOM_COUNT>
37

> <PUBCHEM_ATOM_DEF_STEREO_COUNT>
0

> <PUBCHEM_ATOM_UDEF_STEREO_COUNT>
0

> <PUBCHEM_BOND_DEF_STEREO_COUNT>
0

> <PUBCHEM_BOND_UDEF_STEREO_COUNT>
0

> <PUBCHEM_ISOTOPIC_ATOM_COUNT>
0

> <PUBCHEM_COMPONENT_COUNT>
1

> <PUBCHEM_CACTVS_TAUTO_COUNT>
-1

> <PUBCHEM_COORDINATE_TYPE>
1
5
255

> <PUBCHEM_BONDANNOTATIONS>
10  25  8
10  33  8
11  12  8
11  29  8
12  34  8
27  28  8
28  33  8
29  32  8
32  34  8
9  25  8
9  27  8

$$$$
