13084523
  -OEChem-03202503342D

 29 30  0     0  0  0  0  0  0999 V2000
    7.2764   -1.7097    0.0000 S   0  0  0  0  0  0  0  0  0  0  0  0
    4.5981    1.5950    0.0000 O   0  0  0  0  0  0  0  0  0  0  0  0
    2.8660    2.5950    0.0000 O   0  0  0  0  0  0  0  0  0  0  0  0
    2.0000    1.0950    0.0000 O   0  0  0  0  0  0  0  0  0  0  0  0
    3.7320   -1.9050    0.0000 N   0  0  0  0  0  0  0  0  0  0  0  0
    3.7320    0.0950    0.0000 N   0  0  0  0  0  0  0  0  0  0  0  0
    7.8600   -0.9050    0.0000 N   0  0  0  0  0  0  0  0  0  0  0  0
    4.5981   -1.4050    0.0000 C   0  0  0  0  0  0  0  0  0  0  0  0
    4.5981   -0.4050    0.0000 C   0  0  0  0  0  0  0  0  0  0  0  0
    6.3301   -0.4050    0.0000 C   0  0  0  0  0  0  0  0  0  0  0  0
    5.4641   -1.9050    0.0000 C   0  0  0  0  0  0  0  0  0  0  0  0
    6.3301   -1.4050    0.0000 C   0  0  0  0  0  0  0  0  0  0  0  0
    5.4641    0.0950    0.0000 C   0  0  0  0  0  0  0  0  0  0  0  0
    3.7320   -2.9050    0.0000 C   0  0  0  0  0  0  0  0  0  0  0  0
    2.8660   -1.4050    0.0000 C   0  0  0  0  0  0  0  0  0  0  0  0
    7.2764   -0.1003    0.0000 C   0  0  0  0  0  0  0  0  0  0  0  0
    3.7320    1.0950    0.0000 C   0  0  0  0  0  0  0  0  0  0  0  0
    2.8660    1.5950    0.0000 C   0  0  0  0  0  0  0  0  0  0  0  0
    5.4641   -2.5250    0.0000 H   0  0  0  0  0  0  0  0  0  0  0  0
    5.4641    0.7150    0.0000 H   0  0  0  0  0  0  0  0  0  0  0  0
    3.1120   -2.9050    0.0000 H   0  0  0  0  0  0  0  0  0  0  0  0
    3.7320   -3.5250    0.0000 H   0  0  0  0  0  0  0  0  0  0  0  0
    4.3520   -2.9050    0.0000 H   0  0  0  0  0  0  0  0  0  0  0  0
    3.1760   -0.8681    0.0000 H   0  0  0  0  0  0  0  0  0  0  0  0
    2.3291   -1.0950    0.0000 H   0  0  0  0  0  0  0  0  0  0  0  0
    2.5560   -1.9419    0.0000 H   0  0  0  0  0  0  0  0  0  0  0  0
    3.1951   -0.2150    0.0000 H   0  0  0  0  0  0  0  0  0  0  0  0
    7.4690    0.4891    0.0000 H   0  0  0  0  0  0  0  0  0  0  0  0
    2.3291    2.9050    0.0000 H   0  0  0  0  0  0  0  0  0  0  0  0
  1  7  1  0  0  0  0
  1 12  1  0  0  0  0
  2 17  2  0  0  0  0
  3 18  1  0  0  0  0
  3 29  1  0  0  0  0
  4 18  2  0  0  0  0
  5  8  1  0  0  0  0
  5 14  1  0  0  0  0
  5 15  1  0  0  0  0
  6  9  1  0  0  0  0
  6 17  1  0  0  0  0
  6 27  1  0  0  0  0
  7 16  2  0  0  0  0
  8  9  2  0  0  0  0
  8 11  1  0  0  0  0
  9 13  1  0  0  0  0
 10 12  1  0  0  0  0
 10 13  2  0  0  0  0
 10 16  1  0  0  0  0
 11 12  2  0  0  0  0
 11 19  1  0  0  0  0
 13 20  1  0  0  0  0
 14 21  1  0  0  0  0
 14 22  1  0  0  0  0
 14 23  1  0  0  0  0
 15 24  1  0  0  0  0
 15 25  1  0  0  0  0
 15 26  1  0  0  0  0
 16 28  1  0  0  0  0
 17 18  1  0  0  0  0
M  END
> <PUBCHEM_COMPOUND_CID>
13084523

> <PUBCHEM_COMPOUND_CANONICALIZED>
1

> <PUBCHEM_CACTVS_COMPLEXITY>
350

> <PUBCHEM_CACTVS_HBOND_ACCEPTOR>
6

> <PUBCHEM_CACTVS_HBOND_DONOR>
2

> <PUBCHEM_CACTVS_ROTATABLE_BOND>
3

> <PUBCHEM_CACTVS_SUBSKEYS>
AAADccBzMABAAAAAAAAAAAAAAAAAAWAAAAAwAAAAAAAAAFgB8AAAHgQQSAAADAjB2gQ+ydPAAgCsAjX3WAKDABAhAgBAmDjodJgKYKLAkbGUIAxglADYyAcQgAAOCAQAQCAEACAQCACAQAgAQAAAAAAAAA==

> <PUBCHEM_IUPAC_OPENEYE_NAME>
2-[[6-(dimethylamino)-1,2-benzothiazol-5-yl]amino]-2-oxo-acetic acid

> <PUBCHEM_IUPAC_CAS_NAME>
2-[[6-(dimethylamino)-1,2-benzothiazol-5-yl]amino]-2-oxoacetic acid

> <PUBCHEM_IUPAC_NAME_MARKUP>
2-[[6-(dimethylamino)-1,2-benzothiazol-5-yl]amino]-2-oxoacetic acid

> <PUBCHEM_IUPAC_NAME>
2-[[6-(dimethylamino)-1,2-benzothiazol-5-yl]amino]-2-oxoacetic acid

> <PUBCHEM_IUPAC_SYSTEMATIC_NAME>
2-[[6-(dimethylamino)-1,2-benzothiazol-5-yl]amino]-2-oxidanylidene-ethanoic acid

> <PUBCHEM_IUPAC_TRADITIONAL_NAME>
2-[[6-(dimethylamino)-1,2-benzothiazol-5-yl]amino]-2-keto-acetic acid

> <PUBCHEM_IUPAC_INCHI>
InChI=1S/C11H11N3O3S/c1-14(2)8-4-9-6(5-12-18-9)3-7(8)13-10(15)11(16)17/h3-5H,1-2H3,(H,13,15)(H,16,17)

> <PUBCHEM_IUPAC_INCHIKEY>
PNAPQQCRNHMIER-UHFFFAOYSA-N

> <PUBCHEM_XLOGP3_AA>
1.6

> <PUBCHEM_EXACT_MASS>
265.05211239

> <PUBCHEM_MOLECULAR_FORMULA>
C11H11N3O3S

> <PUBCHEM_MOLECULAR_WEIGHT>
265.29

> <PUBCHEM_SMILES>
CN(C)C1=C(C=C2C=NSC2=C1)NC(=O)C(=O)O

> <PUBCHEM_OPENEYE_CAN_SMILES>
CN(C)C1=C(C=C2C=NSC2=C1)NC(=O)C(=O)O

> <PUBCHEM_OPENEYE_ISO_SMILES>
CN(C)C1=C(C=C2C=NSC2=C1)NC(=O)C(=O)O

> <PUBCHEM_CACTVS_TPSA>
111

> <PUBCHEM_MONOISOTOPIC_WEIGHT>
265.05211239

> <PUBCHEM_TOTAL_CHARGE>
0

> <PUBCHEM_HEAVY_ATOM_COUNT>
18

> <PUBCHEM_ATOM_DEF_STEREO_COUNT>
0

> <PUBCHEM_ATOM_UDEF_STEREO_COUNT>
0

> <PUBCHEM_BOND_DEF_STEREO_COUNT>
0

> <PUBCHEM_BOND_UDEF_STEREO_COUNT>
0

> <PUBCHEM_ISOTOPIC_ATOM_COUNT>
0

> <PUBCHEM_COMPONENT_COUNT>
1

> <PUBCHEM_CACTVS_TAUTO_COUNT>
-1

> <PUBCHEM_COORDINATE_TYPE>
1
5
255

> <PUBCHEM_BONDANNOTATIONS>
1  12  8
1  7  8
10  12  8
10  13  8
10  16  8
11  12  8
7  16  8
8  11  8
8  9  8
9  13  8

$$$$
