49830435
  -OEChem-03202503292D

 47 50  0     1  0  0  0  0  0999 V2000
   12.7705    3.4532    0.0000 F   0  0  0  0  0  0  0  0  0  0  0  0
    7.2566    0.5210    0.0000 O   0  0  0  0  0  0  0  0  0  0  0  0
    4.6783   -3.4019    0.0000 N   0  0  0  0  0  0  0  0  0  0  0  0
    6.6353   -1.3800    0.0000 N   0  0  0  0  0  0  0  0  0  0  0  0
    7.2101    3.1664    0.0000 N   0  0  0  0  0  0  0  0  0  0  0  0
    4.9889   -0.8419    0.0000 C   0  0  0  0  0  0  0  0  0  0  0  0
    5.9674   -0.6357    0.0000 C   0  0  3  0  0  0  0  0  0  0  0  0
    4.6783   -1.7924    0.0000 C   0  0  0  0  0  0  0  0  0  0  0  0
    3.7320   -2.0972    0.0000 C   0  0  0  0  0  0  0  0  0  0  0  0
    6.2781    0.3148    0.0000 C   0  0  0  0  0  0  0  0  0  0  0  0
    3.7320   -3.0972    0.0000 C   0  0  0  0  0  0  0  0  0  0  0  0
    5.2619   -2.5972    0.0000 C   0  0  0  0  0  0  0  0  0  0  0  0
    2.8660   -1.5972    0.0000 C   0  0  0  0  0  0  0  0  0  0  0  0
    2.8660   -3.5972    0.0000 C   0  0  0  0  0  0  0  0  0  0  0  0
    2.0000   -2.0972    0.0000 C   0  0  0  0  0  0  0  0  0  0  0  0
    2.0000   -3.0972    0.0000 C   0  0  0  0  0  0  0  0  0  0  0  0
    7.5673    1.4715    0.0000 C   0  0  0  0  0  0  0  0  0  0  0  0
    8.5458    1.6778    0.0000 C   0  0  0  0  0  0  0  0  0  0  0  0
    8.8564    2.6283    0.0000 C   0  0  0  0  0  0  0  0  0  0  0  0
    9.8349    2.8345    0.0000 C   0  0  0  0  0  0  0  0  0  0  0  0
    6.8994    2.2158    0.0000 C   0  0  0  0  0  0  0  0  0  0  0  0
    8.1886    3.3726    0.0000 C   0  0  0  0  0  0  0  0  0  0  0  0
   10.5028    2.0902    0.0000 C   0  0  0  0  0  0  0  0  0  0  0  0
   10.1456    3.7850    0.0000 C   0  0  0  0  0  0  0  0  0  0  0  0
   11.4813    2.2964    0.0000 C   0  0  0  0  0  0  0  0  0  0  0  0
   11.1241    3.9912    0.0000 C   0  0  0  0  0  0  0  0  0  0  0  0
   11.7920    3.2469    0.0000 C   0  0  0  0  0  0  0  0  0  0  0  0
    4.9684   -0.2223    0.0000 H   0  0  0  0  0  0  0  0  0  0  0  0
    4.3751   -0.7546    0.0000 H   0  0  0  0  0  0  0  0  0  0  0  0
    5.7748   -1.2250    0.0000 H   0  0  0  0  0  0  0  0  0  0  0  0
    6.2575    0.9345    0.0000 H   0  0  0  0  0  0  0  0  0  0  0  0
    5.6643    0.4022    0.0000 H   0  0  0  0  0  0  0  0  0  0  0  0
    5.8819   -2.5972    0.0000 H   0  0  0  0  0  0  0  0  0  0  0  0
    4.8709   -3.9912    0.0000 H   0  0  0  0  0  0  0  0  0  0  0  0
    2.8660   -0.9772    0.0000 H   0  0  0  0  0  0  0  0  0  0  0  0
    7.2420   -1.2522    0.0000 H   0  0  0  0  0  0  0  0  0  0  0  0
    6.4427   -1.9693    0.0000 H   0  0  0  0  0  0  0  0  0  0  0  0
    2.8660   -4.2172    0.0000 H   0  0  0  0  0  0  0  0  0  0  0  0
    1.4631   -1.7872    0.0000 H   0  0  0  0  0  0  0  0  0  0  0  0
    1.4631   -3.4072    0.0000 H   0  0  0  0  0  0  0  0  0  0  0  0
    8.9598    1.2163    0.0000 H   0  0  0  0  0  0  0  0  0  0  0  0
    6.2928    2.0880    0.0000 H   0  0  0  0  0  0  0  0  0  0  0  0
    8.3812    3.9619    0.0000 H   0  0  0  0  0  0  0  0  0  0  0  0
   10.3102    1.5009    0.0000 H   0  0  0  0  0  0  0  0  0  0  0  0
    9.7315    4.2465    0.0000 H   0  0  0  0  0  0  0  0  0  0  0  0
   11.8954    1.8350    0.0000 H   0  0  0  0  0  0  0  0  0  0  0  0
   11.3167    4.5806    0.0000 H   0  0  0  0  0  0  0  0  0  0  0  0
  1 27  1  0  0  0  0
  2 10  1  0  0  0  0
  2 17  1  0  0  0  0
  3 11  1  0  0  0  0
  3 12  1  0  0  0  0
  3 34  1  0  0  0  0
  4  7  1  0  0  0  0
  4 36  1  0  0  0  0
  4 37  1  0  0  0  0
  5 21  1  0  0  0  0
  5 22  2  0  0  0  0
  6  7  1  0  0  0  0
  6  8  1  0  0  0  0
  6 28  1  0  0  0  0
  6 29  1  0  0  0  0
  7 10  1  0  0  0  0
  7 30  1  0  0  0  0
  8  9  1  0  0  0  0
  8 12  2  0  0  0  0
  9 11  1  0  0  0  0
  9 13  2  0  0  0  0
 10 31  1  0  0  0  0
 10 32  1  0  0  0  0
 11 14  2  0  0  0  0
 12 33  1  0  0  0  0
 13 15  1  0  0  0  0
 13 35  1  0  0  0  0
 14 16  1  0  0  0  0
 14 38  1  0  0  0  0
 15 16  2  0  0  0  0
 15 39  1  0  0  0  0
 16 40  1  0  0  0  0
 17 18  1  0  0  0  0
 17 21  2  0  0  0  0
 18 19  2  0  0  0  0
 18 41  1  0  0  0  0
 19 20  1  0  0  0  0
 19 22  1  0  0  0  0
 20 23  2  0  0  0  0
 20 24  1  0  0  0  0
 21 42  1  0  0  0  0
 22 43  1  0  0  0  0
 23 25  1  0  0  0  0
 23 44  1  0  0  0  0
 24 26  2  0  0  0  0
 24 45  1  0  0  0  0
 25 27  2  0  0  0  0
 25 46  1  0  0  0  0
 26 27  1  0  0  0  0
 26 47  1  0  0  0  0
M  END
> <PUBCHEM_COMPOUND_CID>
49830435

> <PUBCHEM_COMPOUND_CANONICALIZED>
1

> <PUBCHEM_CACTVS_COMPLEXITY>
457

> <PUBCHEM_CACTVS_HBOND_ACCEPTOR>
4

> <PUBCHEM_CACTVS_HBOND_DONOR>
2

> <PUBCHEM_CACTVS_ROTATABLE_BOND>
6

> <PUBCHEM_CACTVS_SUBSKEYS>
AAADceB7IQAAAAAAAAAAAAAAAAAAAWAAAAA8YIAAAAAAAFgB/AAAHwAQAAAADCzhng48xvLJlACgAzRnRASCiCAxYiAI2aA/bJgOJuLEsZuHOCjk0BHY6Aew0PIOgAAAAAACAAAAAAAAAAQAAAAAAAAAAA==

> <PUBCHEM_IUPAC_OPENEYE_NAME>
1-[[5-(4-fluorophenyl)-3-pyridyl]oxy]-3-(1H-indol-3-yl)propan-2-amine

> <PUBCHEM_IUPAC_CAS_NAME>
1-[[5-(4-fluorophenyl)-3-pyridinyl]oxy]-3-(1H-indol-3-yl)-2-propanamine

> <PUBCHEM_IUPAC_NAME_MARKUP>
1-[5-(4-fluorophenyl)pyridin-3-yl]oxy-3-(1<I>H</I>-indol-3-yl)propan-2-amine

> <PUBCHEM_IUPAC_NAME>
1-[5-(4-fluorophenyl)pyridin-3-yl]oxy-3-(1H-indol-3-yl)propan-2-amine

> <PUBCHEM_IUPAC_SYSTEMATIC_NAME>
1-[5-(4-fluorophenyl)pyridin-3-yl]oxy-3-(1H-indol-3-yl)propan-2-amine

> <PUBCHEM_IUPAC_TRADITIONAL_NAME>
[1-[[5-(4-fluorophenyl)-3-pyridyl]oxymethyl]-2-(1H-indol-3-yl)ethyl]amine

> <PUBCHEM_IUPAC_INCHI>
InChI=1S/C22H20FN3O/c23-18-7-5-15(6-8-18)16-10-20(13-25-11-16)27-14-19(24)9-17-12-26-22-4-2-1-3-21(17)22/h1-8,10-13,19,26H,9,14,24H2

> <PUBCHEM_IUPAC_INCHIKEY>
VUDAXHCEPITOSW-UHFFFAOYSA-N

> <PUBCHEM_XLOGP3_AA>
3.8

> <PUBCHEM_EXACT_MASS>
361.15904043

> <PUBCHEM_MOLECULAR_FORMULA>
C22H20FN3O

> <PUBCHEM_MOLECULAR_WEIGHT>
361.4

> <PUBCHEM_SMILES>
C1=CC=C2C(=C1)C(=CN2)CC(COC3=CN=CC(=C3)C4=CC=C(C=C4)F)N

> <PUBCHEM_OPENEYE_CAN_SMILES>
C1=CC=C2C(=C1)C(=CN2)CC(COC3=CN=CC(=C3)C4=CC=C(C=C4)F)N

> <PUBCHEM_OPENEYE_ISO_SMILES>
C1=CC=C2C(=C1)C(=CN2)CC(COC3=CN=CC(=C3)C4=CC=C(C=C4)F)N

> <PUBCHEM_CACTVS_TPSA>
63.9

> <PUBCHEM_MONOISOTOPIC_WEIGHT>
361.15904043

> <PUBCHEM_TOTAL_CHARGE>
0

> <PUBCHEM_HEAVY_ATOM_COUNT>
27

> <PUBCHEM_ATOM_DEF_STEREO_COUNT>
0

> <PUBCHEM_ATOM_UDEF_STEREO_COUNT>
1

> <PUBCHEM_BOND_DEF_STEREO_COUNT>
0

> <PUBCHEM_BOND_UDEF_STEREO_COUNT>
0

> <PUBCHEM_ISOTOPIC_ATOM_COUNT>
0

> <PUBCHEM_COMPONENT_COUNT>
1

> <PUBCHEM_CACTVS_TAUTO_COUNT>
-1

> <PUBCHEM_COORDINATE_TYPE>
1
5
255

> <PUBCHEM_BONDANNOTATIONS>
11  14  8
13  15  8
14  16  8
15  16  8
17  18  8
17  21  8
18  19  8
19  22  8
20  23  8
20  24  8
23  25  8
24  26  8
25  27  8
26  27  8
3  11  8
3  12  8
7  4  3
5  21  8
5  22  8
8  12  8
8  9  8
9  11  8
9  13  8

$$$$
