44229839
  -OEChem-03202504352D

 60 64  0     0  0  0  0  0  0999 V2000
    4.3958    1.0000    0.0000 Cl  0  0  0  0  0  0  0  0  0  0  0  0
    2.5836   -3.8047    0.0000 S   0  0  0  0  0  0  0  0  0  0  0  0
   12.9184    0.6261    0.0000 O   0  0  0  0  0  0  0  0  0  0  0  0
    4.3958   -1.0000    0.0000 O   0  0  0  0  0  0  0  0  0  0  0  0
    9.6722    2.1953    0.0000 N   0  0  0  0  0  0  0  0  0  0  0  0
   11.2720    0.0880    0.0000 N   0  0  0  0  0  0  0  0  0  0  0  0
   12.8719   -2.0192    0.0000 N   0  0  0  0  0  0  0  0  0  0  0  0
    7.8600    1.0000    0.0000 N   0  0  0  0  0  0  0  0  0  0  0  0
    7.8600    4.0000    0.0000 N   0  0  0  0  0  0  0  0  0  0  0  0
    6.9939    2.5000    0.0000 N   0  0  0  0  0  0  0  0  0  0  0  0
    2.0000   -3.0000    0.0000 N   0  0  0  0  0  0  0  0  0  0  0  0
    9.9829    1.2448    0.0000 C   0  0  0  0  0  0  0  0  0  0  0  0
   10.9614    1.0385    0.0000 C   0  0  0  0  0  0  0  0  0  0  0  0
   12.5612   -1.0687    0.0000 C   0  0  0  0  0  0  0  0  0  0  0  0
    8.7260    2.5000    0.0000 C   0  0  0  0  0  0  0  0  0  0  0  0
    8.7260    3.5000    0.0000 C   0  0  0  0  0  0  0  0  0  0  0  0
   10.2558    3.0000    0.0000 C   0  0  0  0  0  0  0  0  0  0  0  0
   12.2505   -0.1182    0.0000 C   0  0  0  0  0  0  0  0  0  0  0  0
    7.8600    2.0000    0.0000 C   0  0  0  0  0  0  0  0  0  0  0  0
    9.6722    3.8047    0.0000 C   0  0  0  0  0  0  0  0  0  0  0  0
   13.5117   -0.7581    0.0000 C   0  0  0  0  0  0  0  0  0  0  0  0
   11.6107   -1.3794    0.0000 C   0  0  0  0  0  0  0  0  0  0  0  0
    6.9939    0.5000    0.0000 C   0  0  0  0  0  0  0  0  0  0  0  0
    6.9939    3.5000    0.0000 C   0  0  0  0  0  0  0  0  0  0  0  0
    6.1279    1.0000    0.0000 C   0  0  0  0  0  0  0  0  0  0  0  0
    6.9939   -0.5000    0.0000 C   0  0  0  0  0  0  0  0  0  0  0  0
    5.2619   -0.5000    0.0000 C   0  0  0  0  0  0  0  0  0  0  0  0
    5.2619    0.5000    0.0000 C   0  0  0  0  0  0  0  0  0  0  0  0
    6.1279   -1.0000    0.0000 C   0  0  0  0  0  0  0  0  0  0  0  0
    4.3958   -2.0000    0.0000 C   0  0  0  0  0  0  0  0  0  0  0  0
    3.5298   -2.5000    0.0000 C   0  0  0  0  0  0  0  0  0  0  0  0
    3.5298   -3.5000    0.0000 C   0  0  0  0  0  0  0  0  0  0  0  0
    5.2619   -2.5000    0.0000 C   0  0  0  0  0  0  0  0  0  0  0  0
    4.3958   -4.0000    0.0000 C   0  0  0  0  0  0  0  0  0  0  0  0
    5.2619   -3.5000    0.0000 C   0  0  0  0  0  0  0  0  0  0  0  0
    2.5836   -2.1953    0.0000 C   0  0  0  0  0  0  0  0  0  0  0  0
    9.3690    1.1574    0.0000 H   0  0  0  0  0  0  0  0  0  0  0  0
    9.9623    0.6251    0.0000 H   0  0  0  0  0  0  0  0  0  0  0  0
   11.5752    1.1259    0.0000 H   0  0  0  0  0  0  0  0  0  0  0  0
   10.9819    1.6582    0.0000 H   0  0  0  0  0  0  0  0  0  0  0  0
   10.8758    3.0000    0.0000 H   0  0  0  0  0  0  0  0  0  0  0  0
   10.8580   -0.3735    0.0000 H   0  0  0  0  0  0  0  0  0  0  0  0
    9.8648    4.3940    0.0000 H   0  0  0  0  0  0  0  0  0  0  0  0
   13.7043   -1.3474    0.0000 H   0  0  0  0  0  0  0  0  0  0  0  0
   14.1010   -0.5655    0.0000 H   0  0  0  0  0  0  0  0  0  0  0  0
   13.3191   -0.1687    0.0000 H   0  0  0  0  0  0  0  0  0  0  0  0
   11.4181   -0.7901    0.0000 H   0  0  0  0  0  0  0  0  0  0  0  0
   11.0214   -1.5720    0.0000 H   0  0  0  0  0  0  0  0  0  0  0  0
   11.8033   -1.9687    0.0000 H   0  0  0  0  0  0  0  0  0  0  0  0
   13.4785   -2.1471    0.0000 H   0  0  0  0  0  0  0  0  0  0  0  0
   12.4578   -2.4807    0.0000 H   0  0  0  0  0  0  0  0  0  0  0  0
    8.3969    0.6900    0.0000 H   0  0  0  0  0  0  0  0  0  0  0  0
    6.4570    3.8100    0.0000 H   0  0  0  0  0  0  0  0  0  0  0  0
    6.1279    1.6200    0.0000 H   0  0  0  0  0  0  0  0  0  0  0  0
    7.5309   -0.8100    0.0000 H   0  0  0  0  0  0  0  0  0  0  0  0
    6.1279   -1.6200    0.0000 H   0  0  0  0  0  0  0  0  0  0  0  0
    5.7988   -2.1900    0.0000 H   0  0  0  0  0  0  0  0  0  0  0  0
    4.3958   -4.6200    0.0000 H   0  0  0  0  0  0  0  0  0  0  0  0
    5.7988   -3.8100    0.0000 H   0  0  0  0  0  0  0  0  0  0  0  0
    2.3910   -1.6060    0.0000 H   0  0  0  0  0  0  0  0  0  0  0  0
  1 28  1  0  0  0  0
  2 11  1  0  0  0  0
  2 32  1  0  0  0  0
  3 18  2  0  0  0  0
  4 27  1  0  0  0  0
  4 30  1  0  0  0  0
  5 12  1  0  0  0  0
  5 15  1  0  0  0  0
  5 17  1  0  0  0  0
  6 13  1  0  0  0  0
  6 18  1  0  0  0  0
  6 42  1  0  0  0  0
  7 14  1  0  0  0  0
  7 50  1  0  0  0  0
  7 51  1  0  0  0  0
  8 19  1  0  0  0  0
  8 23  1  0  0  0  0
  8 52  1  0  0  0  0
  9 16  1  0  0  0  0
  9 24  2  0  0  0  0
 10 19  2  0  0  0  0
 10 24  1  0  0  0  0
 11 36  2  0  0  0  0
 12 13  1  0  0  0  0
 12 37  1  0  0  0  0
 12 38  1  0  0  0  0
 13 39  1  0  0  0  0
 13 40  1  0  0  0  0
 14 18  1  0  0  0  0
 14 21  1  0  0  0  0
 14 22  1  0  0  0  0
 15 16  2  0  0  0  0
 15 19  1  0  0  0  0
 16 20  1  0  0  0  0
 17 20  2  0  0  0  0
 17 41  1  0  0  0  0
 20 43  1  0  0  0  0
 21 44  1  0  0  0  0
 21 45  1  0  0  0  0
 21 46  1  0  0  0  0
 22 47  1  0  0  0  0
 22 48  1  0  0  0  0
 22 49  1  0  0  0  0
 23 25  2  0  0  0  0
 23 26  1  0  0  0  0
 24 53  1  0  0  0  0
 25 28  1  0  0  0  0
 25 54  1  0  0  0  0
 26 29  2  0  0  0  0
 26 55  1  0  0  0  0
 27 28  2  0  0  0  0
 27 29  1  0  0  0  0
 29 56  1  0  0  0  0
 30 31  2  0  0  0  0
 30 33  1  0  0  0  0
 31 32  1  0  0  0  0
 31 36  1  0  0  0  0
 32 34  2  0  0  0  0
 33 35  2  0  0  0  0
 33 57  1  0  0  0  0
 34 35  1  0  0  0  0
 34 58  1  0  0  0  0
 35 59  1  0  0  0  0
 36 60  1  0  0  0  0
M  END
> <PUBCHEM_COMPOUND_CID>
44229839

> <PUBCHEM_COMPOUND_CANONICALIZED>
1

> <PUBCHEM_CACTVS_COMPLEXITY>
764

> <PUBCHEM_CACTVS_HBOND_ACCEPTOR>
8

> <PUBCHEM_CACTVS_HBOND_DONOR>
3

> <PUBCHEM_CACTVS_ROTATABLE_BOND>
8

> <PUBCHEM_CACTVS_SUBSKEYS>
AAADceB7sABEAAAAAAAAAAAAAAAAAWLAAAA8YIAAAAAAAFgB/gAAHgYQQAAADI7B3iQ/9/fMFACsAzd3dACDiD0xN+BJ2Lm+f5iMbuPF+9uWPCzu1hvI6CewwCAOAEAABAIMCAAAgAAIBBgQAAAAAAAAAA==

> <PUBCHEM_IUPAC_OPENEYE_NAME>
2-amino-N-[2-[4-[4-(1,2-benzothiazol-4-yloxy)-3-chloro-anilino]pyrrolo[3,2-d]pyrimidin-5-yl]ethyl]-2-methyl-propanamide

> <PUBCHEM_IUPAC_CAS_NAME>
2-amino-N-[2-[4-[4-(1,2-benzothiazol-4-yloxy)-3-chloroanilino]-5-pyrrolo[3,2-d]pyrimidinyl]ethyl]-2-methylpropanamide

> <PUBCHEM_IUPAC_NAME_MARKUP>
2-amino-<I>N</I>-[2-[4-[4-(1,2-benzothiazol-4-yloxy)-3-chloroanilino]pyrrolo[3,2-d]pyrimidin-5-yl]ethyl]-2-methylpropanamide

> <PUBCHEM_IUPAC_NAME>
2-amino-N-[2-[4-[4-(1,2-benzothiazol-4-yloxy)-3-chloroanilino]pyrrolo[3,2-d]pyrimidin-5-yl]ethyl]-2-methylpropanamide

> <PUBCHEM_IUPAC_SYSTEMATIC_NAME>
2-azanyl-N-[2-[4-[[4-(1,2-benzothiazol-4-yloxy)-3-chloranyl-phenyl]amino]pyrrolo[3,2-d]pyrimidin-5-yl]ethyl]-2-methyl-propanamide

> <PUBCHEM_IUPAC_TRADITIONAL_NAME>
2-amino-N-[2-[4-[4-(1,2-benzothiazol-4-yloxy)-3-chloro-anilino]pyrrolo[3,2-d]pyrimidin-5-yl]ethyl]-2-methyl-propionamide

> <PUBCHEM_IUPAC_INCHI>
InChI=1S/C25H24ClN7O2S/c1-25(2,27)24(34)28-9-11-33-10-8-18-22(33)23(30-14-29-18)32-15-6-7-20(17(26)12-15)35-19-4-3-5-21-16(19)13-31-36-21/h3-8,10,12-14H,9,11,27H2,1-2H3,(H,28,34)(H,29,30,32)

> <PUBCHEM_IUPAC_INCHIKEY>
AVHNHPHSQMBYAJ-UHFFFAOYSA-N

> <PUBCHEM_XLOGP3_AA>
3.7

> <PUBCHEM_EXACT_MASS>
521.1400719

> <PUBCHEM_MOLECULAR_FORMULA>
C25H24ClN7O2S

> <PUBCHEM_MOLECULAR_WEIGHT>
522.0

> <PUBCHEM_SMILES>
CC(C)(C(=O)NCCN1C=CC2=C1C(=NC=N2)NC3=CC(=C(C=C3)OC4=C5C=NSC5=CC=C4)Cl)N

> <PUBCHEM_OPENEYE_CAN_SMILES>
CC(C)(C(=O)NCCN1C=CC2=C1C(=NC=N2)NC3=CC(=C(C=C3)OC4=C5C=NSC5=CC=C4)Cl)N

> <PUBCHEM_OPENEYE_ISO_SMILES>
CC(C)(C(=O)NCCN1C=CC2=C1C(=NC=N2)NC3=CC(=C(C=C3)OC4=C5C=NSC5=CC=C4)Cl)N

> <PUBCHEM_CACTVS_TPSA>
148

> <PUBCHEM_MONOISOTOPIC_WEIGHT>
521.1400719

> <PUBCHEM_TOTAL_CHARGE>
0

> <PUBCHEM_HEAVY_ATOM_COUNT>
36

> <PUBCHEM_ATOM_DEF_STEREO_COUNT>
0

> <PUBCHEM_ATOM_UDEF_STEREO_COUNT>
0

> <PUBCHEM_BOND_DEF_STEREO_COUNT>
0

> <PUBCHEM_BOND_UDEF_STEREO_COUNT>
0

> <PUBCHEM_ISOTOPIC_ATOM_COUNT>
0

> <PUBCHEM_COMPONENT_COUNT>
1

> <PUBCHEM_CACTVS_TAUTO_COUNT>
-1

> <PUBCHEM_COORDINATE_TYPE>
1
5
255

> <PUBCHEM_BONDANNOTATIONS>
10  19  8
10  24  8
11  36  8
15  16  8
15  19  8
16  20  8
17  20  8
2  11  8
2  32  8
23  25  8
23  26  8
25  28  8
26  29  8
27  28  8
27  29  8
30  31  8
30  33  8
31  32  8
31  36  8
32  34  8
33  35  8
34  35  8
5  15  8
5  17  8
9  16  8
9  24  8

$$$$
