135976660
  -OEChem-03192523182D

 35 37  0     0  0  0  0  0  0999 V2000
    2.8660   -0.6739    0.0000 O   0  0  0  0  0  0  0  0  0  0  0  0
    5.6859    2.6739    0.0000 O   0  0  0  0  0  0  0  0  0  0  0  0
    3.7891    0.9139    0.0000 N   0  0  0  0  0  0  0  0  0  0  0  0
    4.0981    1.8649    0.0000 N   0  0  0  0  0  0  0  0  0  0  0  0
    6.3582    0.6048    0.0000 N   0  0  0  0  0  0  0  0  0  0  0  0
    5.4641   -2.1739    0.0000 N   0  0  0  0  0  0  0  0  0  0  0  0
    7.1013    1.2740    0.0000 N   0  0  0  0  0  0  0  0  0  0  0  0
    4.5981    0.3261    0.0000 C   0  0  0  0  0  0  0  0  0  0  0  0
    4.5981   -0.6739    0.0000 C   0  0  0  0  0  0  0  0  0  0  0  0
    5.4071    0.9139    0.0000 C   0  0  0  0  0  0  0  0  0  0  0  0
    3.7320   -1.1739    0.0000 C   0  0  0  0  0  0  0  0  0  0  0  0
    5.0981    1.8649    0.0000 C   0  0  0  0  0  0  0  0  0  0  0  0
    5.4641   -1.1739    0.0000 C   0  0  0  0  0  0  0  0  0  0  0  0
    3.7320   -2.1739    0.0000 C   0  0  0  0  0  0  0  0  0  0  0  0
    4.5981   -2.6739    0.0000 C   0  0  0  0  0  0  0  0  0  0  0  0
    8.0524    0.9650    0.0000 C   0  0  0  0  0  0  0  0  0  0  0  0
    2.0000   -1.1739    0.0000 C   0  0  0  0  0  0  0  0  0  0  0  0
    8.2603   -0.0132    0.0000 C   0  0  0  0  0  0  0  0  0  0  0  0
    8.7955    1.6341    0.0000 C   0  0  0  0  0  0  0  0  0  0  0  0
    9.2113   -0.3222    0.0000 C   0  0  0  0  0  0  0  0  0  0  0  0
    9.7465    1.3251    0.0000 C   0  0  0  0  0  0  0  0  0  0  0  0
    9.9545    0.3469    0.0000 C   0  0  0  0  0  0  0  0  0  0  0  0
    3.1994    0.7223    0.0000 H   0  0  0  0  0  0  0  0  0  0  0  0
    3.7336    2.3665    0.0000 H   0  0  0  0  0  0  0  0  0  0  0  0
    6.0010   -0.8639    0.0000 H   0  0  0  0  0  0  0  0  0  0  0  0
    3.1951   -2.4839    0.0000 H   0  0  0  0  0  0  0  0  0  0  0  0
    4.5981   -3.2939    0.0000 H   0  0  0  0  0  0  0  0  0  0  0  0
    1.6900   -0.6370    0.0000 H   0  0  0  0  0  0  0  0  0  0  0  0
    1.4631   -1.4839    0.0000 H   0  0  0  0  0  0  0  0  0  0  0  0
    2.3100   -1.7109    0.0000 H   0  0  0  0  0  0  0  0  0  0  0  0
    7.7995   -0.4281    0.0000 H   0  0  0  0  0  0  0  0  0  0  0  0
    8.6666    2.2405    0.0000 H   0  0  0  0  0  0  0  0  0  0  0  0
    9.3402   -0.9287    0.0000 H   0  0  0  0  0  0  0  0  0  0  0  0
   10.2073    1.7399    0.0000 H   0  0  0  0  0  0  0  0  0  0  0  0
   10.5441    0.1553    0.0000 H   0  0  0  0  0  0  0  0  0  0  0  0
  1 11  1  0  0  0  0
  1 17  1  0  0  0  0
  2 12  2  0  0  0  0
  3  4  1  0  0  0  0
  3  8  1  0  0  0  0
  3 23  1  0  0  0  0
  4 12  1  0  0  0  0
  4 24  1  0  0  0  0
  5  7  2  0  0  0  0
  5 10  1  0  0  0  0
  6 13  2  0  0  0  0
  6 15  1  0  0  0  0
  7 16  1  0  0  0  0
  8  9  1  0  0  0  0
  8 10  2  0  0  0  0
  9 11  2  0  0  0  0
  9 13  1  0  0  0  0
 10 12  1  0  0  0  0
 11 14  1  0  0  0  0
 13 25  1  0  0  0  0
 14 15  2  0  0  0  0
 14 26  1  0  0  0  0
 15 27  1  0  0  0  0
 16 18  2  0  0  0  0
 16 19  1  0  0  0  0
 17 28  1  0  0  0  0
 17 29  1  0  0  0  0
 17 30  1  0  0  0  0
 18 20  1  0  0  0  0
 18 31  1  0  0  0  0
 19 21  2  0  0  0  0
 19 32  1  0  0  0  0
 20 22  2  0  0  0  0
 20 33  1  0  0  0  0
 21 22  1  0  0  0  0
 21 34  1  0  0  0  0
 22 35  1  0  0  0  0
M  END
> <PUBCHEM_COMPOUND_CID>
135976660

> <PUBCHEM_COMPOUND_CANONICALIZED>
1

> <PUBCHEM_CACTVS_COMPLEXITY>
471

> <PUBCHEM_CACTVS_HBOND_ACCEPTOR>
6

> <PUBCHEM_CACTVS_HBOND_DONOR>
2

> <PUBCHEM_CACTVS_ROTATABLE_BOND>
4

> <PUBCHEM_CACTVS_SUBSKEYS>
AAADccBzsAAAAAAAAAAAAAAAAAAAAQAAAAA8QAAAAAAAAAABwAAAHgAYAAAADAzBmgY+xpJqFACqAjV3VACCiCAxIiIa+CC+bNgMZGLE8ZmEIChiwAjI6UcQAAAMAAAAAAAAAAAAAAAAAAAAAAAAAAAAAA==

> <PUBCHEM_IUPAC_OPENEYE_NAME>
5-(4-methoxy-3-pyridyl)-4-phenylazo-1,2-dihydropyrazol-3-one

> <PUBCHEM_IUPAC_CAS_NAME>
5-(4-methoxy-3-pyridinyl)-4-phenyldiazenyl-1,2-dihydropyrazol-3-one

> <PUBCHEM_IUPAC_NAME_MARKUP>
5-(4-methoxypyridin-3-yl)-4-phenyldiazenyl-1,2-dihydropyrazol-3-one

> <PUBCHEM_IUPAC_NAME>
5-(4-methoxypyridin-3-yl)-4-phenyldiazenyl-1,2-dihydropyrazol-3-one

> <PUBCHEM_IUPAC_SYSTEMATIC_NAME>
5-(4-methoxypyridin-3-yl)-4-phenyldiazenyl-1,2-dihydropyrazol-3-one

> <PUBCHEM_IUPAC_TRADITIONAL_NAME>
5-(4-methoxy-3-pyridyl)-4-phenylazo-3-pyrazolin-3-one

> <PUBCHEM_IUPAC_INCHI>
InChI=1S/C15H13N5O2/c1-22-12-7-8-16-9-11(12)13-14(15(21)20-18-13)19-17-10-5-3-2-4-6-10/h2-9H,1H3,(H2,18,20,21)

> <PUBCHEM_IUPAC_INCHIKEY>
NPLOHUPMKKUYFK-UHFFFAOYSA-N

> <PUBCHEM_XLOGP3_AA>
2.3

> <PUBCHEM_EXACT_MASS>
295.10692467

> <PUBCHEM_MOLECULAR_FORMULA>
C15H13N5O2

> <PUBCHEM_MOLECULAR_WEIGHT>
295.30

> <PUBCHEM_SMILES>
COC1=C(C=NC=C1)C2=C(C(=O)NN2)N=NC3=CC=CC=C3

> <PUBCHEM_OPENEYE_CAN_SMILES>
COC1=C(C=NC=C1)C2=C(C(=O)NN2)N=NC3=CC=CC=C3

> <PUBCHEM_OPENEYE_ISO_SMILES>
COC1=C(C=NC=C1)C2=C(C(=O)NN2)N=NC3=CC=CC=C3

> <PUBCHEM_CACTVS_TPSA>
88

> <PUBCHEM_MONOISOTOPIC_WEIGHT>
295.10692467

> <PUBCHEM_TOTAL_CHARGE>
0

> <PUBCHEM_HEAVY_ATOM_COUNT>
22

> <PUBCHEM_ATOM_DEF_STEREO_COUNT>
0

> <PUBCHEM_ATOM_UDEF_STEREO_COUNT>
0

> <PUBCHEM_BOND_DEF_STEREO_COUNT>
0

> <PUBCHEM_BOND_UDEF_STEREO_COUNT>
0

> <PUBCHEM_ISOTOPIC_ATOM_COUNT>
0

> <PUBCHEM_COMPONENT_COUNT>
1

> <PUBCHEM_CACTVS_TAUTO_COUNT>
-1

> <PUBCHEM_COORDINATE_TYPE>
1
5
255

> <PUBCHEM_BONDANNOTATIONS>
10  12  8
11  14  8
14  15  8
16  18  8
16  19  8
18  20  8
19  21  8
20  22  8
21  22  8
3  4  8
3  8  8
4  12  8
6  13  8
6  15  8
8  10  8
9  11  8
9  13  8

$$$$
