25065806
  -OEChem-03202506412D

 54 57  0     0  0  0  0  0  0999 V2000
    2.8660    3.9735    0.0000 P   0  0  0  0  0  0  0  0  0  0  0  0
    2.3660    3.1075    0.0000 O   0  0  0  0  0  0  0  0  0  0  0  0
    8.1424   -0.8312    0.0000 N   0  0  0  0  0  0  0  0  0  0  0  0
    6.3301    1.9735    0.0000 N   0  0  0  0  0  0  0  0  0  0  0  0
    8.1424    0.7782    0.0000 N   0  0  0  0  0  0  0  0  0  0  0  0
    6.3301   -1.0265    0.0000 N   0  0  0  0  0  0  0  0  0  0  0  0
    5.4641    0.4735    0.0000 N   0  0  0  0  0  0  0  0  0  0  0  0
    3.7320    3.4735    0.0000 C   0  0  0  0  0  0  0  0  0  0  0  0
    2.0000    4.4735    0.0000 C   0  0  0  0  0  0  0  0  0  0  0  0
    3.3660    4.8395    0.0000 C   0  0  0  0  0  0  0  0  0  0  0  0
    4.5981    3.9735    0.0000 C   0  0  0  0  0  0  0  0  0  0  0  0
    3.7320    2.4735    0.0000 C   0  0  0  0  0  0  0  0  0  0  0  0
    5.4641    2.4735    0.0000 C   0  0  0  0  0  0  0  0  0  0  0  0
    5.4641    3.4735    0.0000 C   0  0  0  0  0  0  0  0  0  0  0  0
    4.5981    1.9735    0.0000 C   0  0  0  0  0  0  0  0  0  0  0  0
    7.1962    0.4735    0.0000 C   0  0  0  0  0  0  0  0  0  0  0  0
    7.1962   -0.5265    0.0000 C   0  0  0  0  0  0  0  0  0  0  0  0
    6.3301    0.9735    0.0000 C   0  0  0  0  0  0  0  0  0  0  0  0
    9.7422   -2.9385    0.0000 C   0  0  0  0  0  0  0  0  0  0  0  0
    9.0744   -3.6828    0.0000 C   0  0  0  0  0  0  0  0  0  0  0  0
   10.7207   -3.1447    0.0000 C   0  0  0  0  0  0  0  0  0  0  0  0
    8.4530   -1.7818    0.0000 C   0  0  0  0  0  0  0  0  0  0  0  0
    9.4315   -1.9880    0.0000 C   0  0  0  0  0  0  0  0  0  0  0  0
    8.7260   -0.0265    0.0000 C   0  0  0  0  0  0  0  0  0  0  0  0
    9.3850   -4.6333    0.0000 C   0  0  0  0  0  0  0  0  0  0  0  0
   11.0314   -4.0952    0.0000 C   0  0  0  0  0  0  0  0  0  0  0  0
    8.0958   -3.4766    0.0000 C   0  0  0  0  0  0  0  0  0  0  0  0
   11.3886   -2.4004    0.0000 C   0  0  0  0  0  0  0  0  0  0  0  0
   10.3635   -4.8395    0.0000 C   0  0  0  0  0  0  0  0  0  0  0  0
    5.4641   -0.5265    0.0000 C   0  0  0  0  0  0  0  0  0  0  0  0
    2.3100    5.0104    0.0000 H   0  0  0  0  0  0  0  0  0  0  0  0
    1.4631    4.7835    0.0000 H   0  0  0  0  0  0  0  0  0  0  0  0
    1.6900    3.9366    0.0000 H   0  0  0  0  0  0  0  0  0  0  0  0
    3.9030    4.5295    0.0000 H   0  0  0  0  0  0  0  0  0  0  0  0
    3.6760    5.3765    0.0000 H   0  0  0  0  0  0  0  0  0  0  0  0
    2.8291    5.1495    0.0000 H   0  0  0  0  0  0  0  0  0  0  0  0
    4.5981    4.5935    0.0000 H   0  0  0  0  0  0  0  0  0  0  0  0
    3.1951    2.1635    0.0000 H   0  0  0  0  0  0  0  0  0  0  0  0
    6.0010    3.7835    0.0000 H   0  0  0  0  0  0  0  0  0  0  0  0
    4.5981    1.3535    0.0000 H   0  0  0  0  0  0  0  0  0  0  0  0
    6.8671    2.2835    0.0000 H   0  0  0  0  0  0  0  0  0  0  0  0
    8.0390   -2.2432    0.0000 H   0  0  0  0  0  0  0  0  0  0  0  0
    9.8456   -1.5265    0.0000 H   0  0  0  0  0  0  0  0  0  0  0  0
    9.3460   -0.0265    0.0000 H   0  0  0  0  0  0  0  0  0  0  0  0
    8.9710   -5.0948    0.0000 H   0  0  0  0  0  0  0  0  0  0  0  0
   11.6380   -4.2231    0.0000 H   0  0  0  0  0  0  0  0  0  0  0  0
    8.2237   -2.8699    0.0000 H   0  0  0  0  0  0  0  0  0  0  0  0
    7.4892   -3.3487    0.0000 H   0  0  0  0  0  0  0  0  0  0  0  0
    7.9680   -4.0832    0.0000 H   0  0  0  0  0  0  0  0  0  0  0  0
   11.8500   -2.8145    0.0000 H   0  0  0  0  0  0  0  0  0  0  0  0
   11.8026   -1.9389    0.0000 H   0  0  0  0  0  0  0  0  0  0  0  0
   10.9271   -1.9863    0.0000 H   0  0  0  0  0  0  0  0  0  0  0  0
   10.5561   -5.4288    0.0000 H   0  0  0  0  0  0  0  0  0  0  0  0
    4.9272   -0.8365    0.0000 H   0  0  0  0  0  0  0  0  0  0  0  0
  1  2  2  0  0  0  0
  1  8  1  0  0  0  0
  1  9  1  0  0  0  0
  1 10  1  0  0  0  0
  3 17  1  0  0  0  0
  3 22  1  0  0  0  0
  3 24  1  0  0  0  0
  4 13  1  0  0  0  0
  4 18  1  0  0  0  0
  4 41  1  0  0  0  0
  5 16  1  0  0  0  0
  5 24  2  0  0  0  0
  6 17  2  0  0  0  0
  6 30  1  0  0  0  0
  7 18  1  0  0  0  0
  7 30  2  0  0  0  0
  8 11  2  0  0  0  0
  8 12  1  0  0  0  0
  9 31  1  0  0  0  0
  9 32  1  0  0  0  0
  9 33  1  0  0  0  0
 10 34  1  0  0  0  0
 10 35  1  0  0  0  0
 10 36  1  0  0  0  0
 11 14  1  0  0  0  0
 11 37  1  0  0  0  0
 12 15  2  0  0  0  0
 12 38  1  0  0  0  0
 13 14  2  0  0  0  0
 13 15  1  0  0  0  0
 14 39  1  0  0  0  0
 15 40  1  0  0  0  0
 16 17  1  0  0  0  0
 16 18  2  0  0  0  0
 19 20  2  0  0  0  0
 19 21  1  0  0  0  0
 19 23  1  0  0  0  0
 20 25  1  0  0  0  0
 20 27  1  0  0  0  0
 21 26  2  0  0  0  0
 21 28  1  0  0  0  0
 22 23  2  0  0  0  0
 22 42  1  0  0  0  0
 23 43  1  0  0  0  0
 24 44  1  0  0  0  0
 25 29  2  0  0  0  0
 25 45  1  0  0  0  0
 26 29  1  0  0  0  0
 26 46  1  0  0  0  0
 27 47  1  0  0  0  0
 27 48  1  0  0  0  0
 27 49  1  0  0  0  0
 28 50  1  0  0  0  0
 28 51  1  0  0  0  0
 28 52  1  0  0  0  0
 29 53  1  0  0  0  0
 30 54  1  0  0  0  0
M  END
> <PUBCHEM_COMPOUND_CID>
25065806

> <PUBCHEM_COMPOUND_CANONICALIZED>
1

> <PUBCHEM_CACTVS_COMPLEXITY>
634

> <PUBCHEM_CACTVS_HBOND_ACCEPTOR>
5

> <PUBCHEM_CACTVS_HBOND_DONOR>
1

> <PUBCHEM_CACTVS_ROTATABLE_BOND>
5

> <PUBCHEM_CACTVS_SUBSKEYS>
AAADceB7oAIAAAAAAAAAAAAAAAAAAWAAAAA8YIAAAAAAAFgB/AAAHAgQACAADAjBHwQ38L/MECCgQyZnZACCgC0xEqAJ2CAodJiIaGLA2dGUJAhokALIyCcQgMAOgAACAAAQAAAAAAQAACAAAAAAAAAAAA==

> <PUBCHEM_IUPAC_OPENEYE_NAME>
9-[(E)-2-(2,6-dimethylphenyl)vinyl]-N-(4-dimethylphosphorylphenyl)purin-6-amine

> <PUBCHEM_IUPAC_CAS_NAME>
9-[(E)-2-(2,6-dimethylphenyl)ethenyl]-N-(4-dimethylphosphorylphenyl)-6-purinamine

> <PUBCHEM_IUPAC_NAME_MARKUP>
9-[(<I>E</I>)-2-(2,6-dimethylphenyl)ethenyl]-<I>N</I>-(4-dimethylphosphorylphenyl)purin-6-amine

> <PUBCHEM_IUPAC_NAME>
9-[(E)-2-(2,6-dimethylphenyl)ethenyl]-N-(4-dimethylphosphorylphenyl)purin-6-amine

> <PUBCHEM_IUPAC_SYSTEMATIC_NAME>
9-[(E)-2-(2,6-dimethylphenyl)ethenyl]-N-(4-dimethylphosphorylphenyl)purin-6-amine

> <PUBCHEM_IUPAC_TRADITIONAL_NAME>
[9-[(E)-2-(2,6-dimethylphenyl)vinyl]purin-6-yl]-(4-dimethylphosphorylphenyl)amine

> <PUBCHEM_IUPAC_INCHI>
InChI=1S/C23H24N5OP/c1-16-6-5-7-17(2)20(16)12-13-28-15-26-21-22(24-14-25-23(21)28)27-18-8-10-19(11-9-18)30(3,4)29/h5-15H,1-4H3,(H,24,25,27)/b13-12+

> <PUBCHEM_IUPAC_INCHIKEY>
RFSFIDGEFVXSQM-OUKQBFOZSA-N

> <PUBCHEM_XLOGP3_AA>
3.8

> <PUBCHEM_EXACT_MASS>
417.17184740

> <PUBCHEM_MOLECULAR_FORMULA>
C23H24N5OP

> <PUBCHEM_MOLECULAR_WEIGHT>
417.4

> <PUBCHEM_SMILES>
CC1=C(C(=CC=C1)C)/C=C/N2C=NC3=C(N=CN=C32)NC4=CC=C(C=C4)P(=O)(C)C

> <PUBCHEM_OPENEYE_CAN_SMILES>
CC1=C(C(=CC=C1)C)C=CN2C=NC3=C(N=CN=C32)NC4=CC=C(C=C4)P(=O)(C)C

> <PUBCHEM_OPENEYE_ISO_SMILES>
CC1=C(C(=CC=C1)C)/C=C/N2C=NC3=C(N=CN=C32)NC4=CC=C(C=C4)P(=O)(C)C

> <PUBCHEM_CACTVS_TPSA>
72.7

> <PUBCHEM_MONOISOTOPIC_WEIGHT>
417.17184740

> <PUBCHEM_TOTAL_CHARGE>
0

> <PUBCHEM_HEAVY_ATOM_COUNT>
30

> <PUBCHEM_ATOM_DEF_STEREO_COUNT>
0

> <PUBCHEM_ATOM_UDEF_STEREO_COUNT>
0

> <PUBCHEM_BOND_DEF_STEREO_COUNT>
1

> <PUBCHEM_BOND_UDEF_STEREO_COUNT>
0

> <PUBCHEM_ISOTOPIC_ATOM_COUNT>
0

> <PUBCHEM_COMPONENT_COUNT>
1

> <PUBCHEM_CACTVS_TAUTO_COUNT>
-1

> <PUBCHEM_COORDINATE_TYPE>
1
5
255

> <PUBCHEM_BONDANNOTATIONS>
11  14  8
12  15  8
13  14  8
13  15  8
16  17  8
16  18  8
19  20  8
19  21  8
20  25  8
21  26  8
25  29  8
26  29  8
3  17  8
3  24  8
5  16  8
5  24  8
6  17  8
6  30  8
7  18  8
7  30  8
8  11  8
8  12  8

$$$$
