5311382
  -OEChem-03202506422D

 62 65  0     0  0  0  0  0  0999 V2000
    4.5981    2.2500    0.0000 Cl  0  0  0  0  0  0  0  0  0  0  0  0
    2.8660   -0.7500    0.0000 Cl  0  0  0  0  0  0  0  0  0  0  0  0
   12.4660    0.7125    0.0000 O   0  0  0  0  0  0  0  0  0  0  0  0
    3.7320   -1.2500    0.0000 O   0  0  0  0  0  0  0  0  0  0  0  0
   15.0621    0.2025    0.0000 N   0  0  0  0  0  0  0  0  0  0  0  0
    5.4641   -1.2500    0.0000 N   0  0  0  0  0  0  0  0  0  0  0  0
    7.2241   -1.2847    0.0000 N   0  0  0  0  0  0  0  0  0  0  0  0
    8.9942   -1.2741    0.0000 N   0  0  0  0  0  0  0  0  0  0  0  0
    8.1301    0.2708    0.0000 N   0  0  0  0  0  0  0  0  0  0  0  0
   14.1981    0.7058    0.0000 C   0  0  0  0  0  0  0  0  0  0  0  0
   15.9301    0.6991    0.0000 C   0  0  0  0  0  0  0  0  0  0  0  0
   15.0583   -0.7975    0.0000 C   0  0  0  0  0  0  0  0  0  0  0  0
   13.3301    0.2091    0.0000 C   0  0  0  0  0  0  0  0  0  0  0  0
    6.3301   -0.7500    0.0000 C   0  0  0  0  0  0  0  0  0  0  0  0
    4.5981    0.2500    0.0000 C   0  0  0  0  0  0  0  0  0  0  0  0
    6.3301    0.2500    0.0000 C   0  0  0  0  0  0  0  0  0  0  0  0
   16.7942    0.1958    0.0000 C   0  0  0  0  0  0  0  0  0  0  0  0
   15.9224   -1.3008    0.0000 C   0  0  0  0  0  0  0  0  0  0  0  0
    4.5981   -0.7500    0.0000 C   0  0  0  0  0  0  0  0  0  0  0  0
    5.4641    0.7500    0.0000 C   0  0  0  0  0  0  0  0  0  0  0  0
    3.7320    0.7500    0.0000 C   0  0  0  0  0  0  0  0  0  0  0  0
   11.5981    0.2158    0.0000 C   0  0  0  0  0  0  0  0  0  0  0  0
    5.4641   -2.2500    0.0000 C   0  0  0  0  0  0  0  0  0  0  0  0
    7.2241    0.7847    0.0000 C   0  0  0  0  0  0  0  0  0  0  0  0
    8.1301   -0.7708    0.0000 C   0  0  0  0  0  0  0  0  0  0  0  0
    9.8622   -0.7775    0.0000 C   0  0  0  0  0  0  0  0  0  0  0  0
   11.5942   -0.7842    0.0000 C   0  0  0  0  0  0  0  0  0  0  0  0
   10.7340    0.7192    0.0000 C   0  0  0  0  0  0  0  0  0  0  0  0
    3.7320    1.7500    0.0000 C   0  0  0  0  0  0  0  0  0  0  0  0
    2.8660    0.2500    0.0000 C   0  0  0  0  0  0  0  0  0  0  0  0
   10.7263   -1.2808    0.0000 C   0  0  0  0  0  0  0  0  0  0  0  0
    9.8660    0.2225    0.0000 C   0  0  0  0  0  0  0  0  0  0  0  0
    2.8660    2.2500    0.0000 C   0  0  0  0  0  0  0  0  0  0  0  0
    2.0000    0.7500    0.0000 C   0  0  0  0  0  0  0  0  0  0  0  0
    2.0000    1.7500    0.0000 C   0  0  0  0  0  0  0  0  0  0  0  0
   14.5984    1.1792    0.0000 H   0  0  0  0  0  0  0  0  0  0  0  0
   13.8014    1.1823    0.0000 H   0  0  0  0  0  0  0  0  0  0  0  0
   16.3304    1.1725    0.0000 H   0  0  0  0  0  0  0  0  0  0  0  0
   15.5334    1.1756    0.0000 H   0  0  0  0  0  0  0  0  0  0  0  0
   14.4481   -0.6875    0.0000 H   0  0  0  0  0  0  0  0  0  0  0  0
   14.8440   -1.3793    0.0000 H   0  0  0  0  0  0  0  0  0  0  0  0
   12.9297   -0.2643    0.0000 H   0  0  0  0  0  0  0  0  0  0  0  0
   13.7268   -0.2673    0.0000 H   0  0  0  0  0  0  0  0  0  0  0  0
   16.4821   -0.3399    0.0000 H   0  0  0  0  0  0  0  0  0  0  0  0
   17.3299   -0.1163    0.0000 H   0  0  0  0  0  0  0  0  0  0  0  0
   17.1062    0.7315    0.0000 H   0  0  0  0  0  0  0  0  0  0  0  0
   15.6103   -1.8366    0.0000 H   0  0  0  0  0  0  0  0  0  0  0  0
   16.4581   -1.6129    0.0000 H   0  0  0  0  0  0  0  0  0  0  0  0
   16.2344   -0.7651    0.0000 H   0  0  0  0  0  0  0  0  0  0  0  0
    5.4641    1.3700    0.0000 H   0  0  0  0  0  0  0  0  0  0  0  0
    4.8441   -2.2500    0.0000 H   0  0  0  0  0  0  0  0  0  0  0  0
    5.4641   -2.8700    0.0000 H   0  0  0  0  0  0  0  0  0  0  0  0
    6.0841   -2.2500    0.0000 H   0  0  0  0  0  0  0  0  0  0  0  0
    7.2169    1.4046    0.0000 H   0  0  0  0  0  0  0  0  0  0  0  0
    8.9918   -1.8942    0.0000 H   0  0  0  0  0  0  0  0  0  0  0  0
   12.1299   -1.0962    0.0000 H   0  0  0  0  0  0  0  0  0  0  0  0
   10.7364    1.3392    0.0000 H   0  0  0  0  0  0  0  0  0  0  0  0
   10.7239   -1.9008    0.0000 H   0  0  0  0  0  0  0  0  0  0  0  0
    9.3303    0.5346    0.0000 H   0  0  0  0  0  0  0  0  0  0  0  0
    2.8660    2.8700    0.0000 H   0  0  0  0  0  0  0  0  0  0  0  0
    1.4631    0.4400    0.0000 H   0  0  0  0  0  0  0  0  0  0  0  0
    1.4631    2.0600    0.0000 H   0  0  0  0  0  0  0  0  0  0  0  0
  1 29  1  0  0  0  0
  2 30  1  0  0  0  0
  3 13  1  0  0  0  0
  3 22  1  0  0  0  0
  4 19  2  0  0  0  0
  5 10  1  0  0  0  0
  5 11  1  0  0  0  0
  5 12  1  0  0  0  0
  6 14  1  0  0  0  0
  6 19  1  0  0  0  0
  6 23  1  0  0  0  0
  7 14  2  0  0  0  0
  7 25  1  0  0  0  0
  8 25  1  0  0  0  0
  8 26  1  0  0  0  0
  8 55  1  0  0  0  0
  9 24  1  0  0  0  0
  9 25  2  0  0  0  0
 10 13  1  0  0  0  0
 10 36  1  0  0  0  0
 10 37  1  0  0  0  0
 11 17  1  0  0  0  0
 11 38  1  0  0  0  0
 11 39  1  0  0  0  0
 12 18  1  0  0  0  0
 12 40  1  0  0  0  0
 12 41  1  0  0  0  0
 13 42  1  0  0  0  0
 13 43  1  0  0  0  0
 14 16  1  0  0  0  0
 15 19  1  0  0  0  0
 15 20  2  0  0  0  0
 15 21  1  0  0  0  0
 16 20  1  0  0  0  0
 16 24  2  0  0  0  0
 17 44  1  0  0  0  0
 17 45  1  0  0  0  0
 17 46  1  0  0  0  0
 18 47  1  0  0  0  0
 18 48  1  0  0  0  0
 18 49  1  0  0  0  0
 20 50  1  0  0  0  0
 21 29  2  0  0  0  0
 21 30  1  0  0  0  0
 22 27  2  0  0  0  0
 22 28  1  0  0  0  0
 23 51  1  0  0  0  0
 23 52  1  0  0  0  0
 23 53  1  0  0  0  0
 24 54  1  0  0  0  0
 26 31  2  0  0  0  0
 26 32  1  0  0  0  0
 27 31  1  0  0  0  0
 27 56  1  0  0  0  0
 28 32  2  0  0  0  0
 28 57  1  0  0  0  0
 29 33  1  0  0  0  0
 30 34  2  0  0  0  0
 31 58  1  0  0  0  0
 32 59  1  0  0  0  0
 33 35  2  0  0  0  0
 33 60  1  0  0  0  0
 34 35  1  0  0  0  0
 34 61  1  0  0  0  0
 35 62  1  0  0  0  0
M  END
> <PUBCHEM_COMPOUND_CID>
5311382

> <PUBCHEM_COMPOUND_CANONICALIZED>
1

> <PUBCHEM_CACTVS_COMPLEXITY>
719

> <PUBCHEM_CACTVS_HBOND_ACCEPTOR>
6

> <PUBCHEM_CACTVS_HBOND_DONOR>
1

> <PUBCHEM_CACTVS_ROTATABLE_BOND>
9

> <PUBCHEM_CACTVS_SUBSKEYS>
AAADceB7sAAGAAAAAAAAAAAAAAAAAAAAAAA8YIEAAAAAAACB0AAAHgIQAAAADA7hmiY/9pfIFACoAjd3dACCiCkxJ6AJ2CEubtiOLrLF/9uHPCjs1xPY6ae4yICOAEAAAACBAAAAgAAAAQIAAAAAAAAAAA==

> <PUBCHEM_IUPAC_OPENEYE_NAME>
6-(2,6-dichlorophenyl)-2-[4-[2-(diethylamino)ethoxy]anilino]-8-methyl-pyrido[2,3-d]pyrimidin-7-one

> <PUBCHEM_IUPAC_CAS_NAME>
6-(2,6-dichlorophenyl)-2-[4-[2-(diethylamino)ethoxy]anilino]-8-methyl-7-pyrido[2,3-d]pyrimidinone

> <PUBCHEM_IUPAC_NAME_MARKUP>
6-(2,6-dichlorophenyl)-2-[4-[2-(diethylamino)ethoxy]anilino]-8-methylpyrido[2,3-d]pyrimidin-7-one

> <PUBCHEM_IUPAC_NAME>
6-(2,6-dichlorophenyl)-2-[4-[2-(diethylamino)ethoxy]anilino]-8-methylpyrido[2,3-d]pyrimidin-7-one

> <PUBCHEM_IUPAC_SYSTEMATIC_NAME>
6-[2,6-bis(chloranyl)phenyl]-2-[[4-[2-(diethylamino)ethoxy]phenyl]amino]-8-methyl-pyrido[2,3-d]pyrimidin-7-one

> <PUBCHEM_IUPAC_TRADITIONAL_NAME>
6-(2,6-dichlorophenyl)-2-[4-[2-(diethylamino)ethoxy]anilino]-8-methyl-pyrido[2,3-d]pyrimidin-7-one

> <PUBCHEM_IUPAC_INCHI>
InChI=1S/C26H27Cl2N5O2/c1-4-33(5-2)13-14-35-19-11-9-18(10-12-19)30-26-29-16-17-15-20(25(34)32(3)24(17)31-26)23-21(27)7-6-8-22(23)28/h6-12,15-16H,4-5,13-14H2,1-3H3,(H,29,30,31)

> <PUBCHEM_IUPAC_INCHIKEY>
IFPPYSWJNWHOLQ-UHFFFAOYSA-N

> <PUBCHEM_XLOGP3_AA>
5.6

> <PUBCHEM_EXACT_MASS>
511.1541805

> <PUBCHEM_MOLECULAR_FORMULA>
C26H27Cl2N5O2

> <PUBCHEM_MOLECULAR_WEIGHT>
512.4

> <PUBCHEM_SMILES>
CCN(CC)CCOC1=CC=C(C=C1)NC2=NC=C3C=C(C(=O)N(C3=N2)C)C4=C(C=CC=C4Cl)Cl

> <PUBCHEM_OPENEYE_CAN_SMILES>
CCN(CC)CCOC1=CC=C(C=C1)NC2=NC=C3C=C(C(=O)N(C3=N2)C)C4=C(C=CC=C4Cl)Cl

> <PUBCHEM_OPENEYE_ISO_SMILES>
CCN(CC)CCOC1=CC=C(C=C1)NC2=NC=C3C=C(C(=O)N(C3=N2)C)C4=C(C=CC=C4Cl)Cl

> <PUBCHEM_CACTVS_TPSA>
70.6

> <PUBCHEM_MONOISOTOPIC_WEIGHT>
511.1541805

> <PUBCHEM_TOTAL_CHARGE>
0

> <PUBCHEM_HEAVY_ATOM_COUNT>
35

> <PUBCHEM_ATOM_DEF_STEREO_COUNT>
0

> <PUBCHEM_ATOM_UDEF_STEREO_COUNT>
0

> <PUBCHEM_BOND_DEF_STEREO_COUNT>
0

> <PUBCHEM_BOND_UDEF_STEREO_COUNT>
0

> <PUBCHEM_ISOTOPIC_ATOM_COUNT>
0

> <PUBCHEM_COMPONENT_COUNT>
1

> <PUBCHEM_CACTVS_TAUTO_COUNT>
-1

> <PUBCHEM_COORDINATE_TYPE>
1
5
255

> <PUBCHEM_BONDANNOTATIONS>
14  16  8
15  19  8
15  20  8
16  20  8
16  24  8
21  29  8
21  30  8
22  27  8
22  28  8
26  31  8
26  32  8
27  31  8
28  32  8
29  33  8
30  34  8
33  35  8
34  35  8
6  14  8
6  19  8
7  14  8
7  25  8
9  24  8
9  25  8

$$$$
