24905219
  -OEChem-03192523532D

 42 45  0     0  0  0  0  0  0999 V2000
    3.7899   -1.0826    0.0000 N   0  0  0  0  0  0  0  0  0  0  0  0
    4.7617   -0.8734    0.0000 N   0  0  0  0  0  0  0  0  0  0  0  0
    2.3107   -0.0177    0.0000 N   0  0  0  0  0  0  0  0  0  0  0  0
    2.6678    1.6772    0.0000 N   0  0  0  0  0  0  0  0  0  0  0  0
    8.3568    0.0806    0.0000 N   0  0  0  0  0  0  0  0  0  0  0  0
    4.3142    2.2152    0.0000 N   0  0  0  0  0  0  0  0  0  0  0  0
    3.3864   -1.9976    0.0000 C   0  0  0  0  0  0  0  0  0  0  0  0
    3.9570    0.5204    0.0000 C   0  0  0  0  0  0  0  0  0  0  0  0
    3.2892   -0.2239    0.0000 C   0  0  0  0  0  0  0  0  0  0  0  0
    4.8648    0.1153    0.0000 C   0  0  0  0  0  0  0  0  0  0  0  0
    5.7308    0.6153    0.0000 C   0  0  0  0  0  0  0  0  0  0  0  0
    3.9769   -2.8046    0.0000 C   0  0  0  0  0  0  0  0  0  0  0  0
    2.3922   -2.1056    0.0000 C   0  0  0  0  0  0  0  0  0  0  0  0
    3.6464    1.4709    0.0000 C   0  0  0  0  0  0  0  0  0  0  0  0
    6.5968    0.1153    0.0000 C   0  0  0  0  0  0  0  0  0  0  0  0
    5.7308    1.6153    0.0000 C   0  0  0  0  0  0  0  0  0  0  0  0
    7.4629    0.6153    0.0000 C   0  0  0  0  0  0  0  0  0  0  0  0
    7.4629    1.6153    0.0000 C   0  0  0  0  0  0  0  0  0  0  0  0
    6.5968    2.1153    0.0000 C   0  0  0  0  0  0  0  0  0  0  0  0
    2.0000    0.9328    0.0000 C   0  0  0  0  0  0  0  0  0  0  0  0
    8.3568    2.1500    0.0000 C   0  0  0  0  0  0  0  0  0  0  0  0
    9.2629    0.5945    0.0000 C   0  0  0  0  0  0  0  0  0  0  0  0
    9.2629    1.6361    0.0000 C   0  0  0  0  0  0  0  0  0  0  0  0
   10.1270    0.0911    0.0000 C   0  0  0  0  0  0  0  0  0  0  0  0
    3.0202   -1.4972    0.0000 H   0  0  0  0  0  0  0  0  0  0  0  0
    3.4766   -3.1707    0.0000 H   0  0  0  0  0  0  0  0  0  0  0  0
    4.3431   -3.3049    0.0000 H   0  0  0  0  0  0  0  0  0  0  0  0
    4.4773   -2.4384    0.0000 H   0  0  0  0  0  0  0  0  0  0  0  0
    2.3253   -1.4892    0.0000 H   0  0  0  0  0  0  0  0  0  0  0  0
    1.7758   -2.1725    0.0000 H   0  0  0  0  0  0  0  0  0  0  0  0
    2.4591   -2.7219    0.0000 H   0  0  0  0  0  0  0  0  0  0  0  0
    6.5968   -0.5047    0.0000 H   0  0  0  0  0  0  0  0  0  0  0  0
    5.1939    1.9253    0.0000 H   0  0  0  0  0  0  0  0  0  0  0  0
    6.5968    2.7353    0.0000 H   0  0  0  0  0  0  0  0  0  0  0  0
    1.3933    1.0607    0.0000 H   0  0  0  0  0  0  0  0  0  0  0  0
    8.3496    2.7699    0.0000 H   0  0  0  0  0  0  0  0  0  0  0  0
    4.1216    2.8046    0.0000 H   0  0  0  0  0  0  0  0  0  0  0  0
    4.9209    2.0874    0.0000 H   0  0  0  0  0  0  0  0  0  0  0  0
    9.7986    1.9482    0.0000 H   0  0  0  0  0  0  0  0  0  0  0  0
    9.8149   -0.4446    0.0000 H   0  0  0  0  0  0  0  0  0  0  0  0
   10.6627   -0.2209    0.0000 H   0  0  0  0  0  0  0  0  0  0  0  0
   10.4390    0.6269    0.0000 H   0  0  0  0  0  0  0  0  0  0  0  0
  1  2  1  0  0  0  0
  1  7  1  0  0  0  0
  1  9  1  0  0  0  0
  2 10  2  0  0  0  0
  3  9  2  0  0  0  0
  3 20  1  0  0  0  0
  4 14  1  0  0  0  0
  4 20  2  0  0  0  0
  5 17  1  0  0  0  0
  5 22  2  0  0  0  0
  6 14  1  0  0  0  0
  6 37  1  0  0  0  0
  6 38  1  0  0  0  0
  7 12  1  0  0  0  0
  7 13  1  0  0  0  0
  7 25  1  0  0  0  0
  8  9  1  0  0  0  0
  8 10  1  0  0  0  0
  8 14  2  0  0  0  0
 10 11  1  0  0  0  0
 11 15  2  0  0  0  0
 11 16  1  0  0  0  0
 12 26  1  0  0  0  0
 12 27  1  0  0  0  0
 12 28  1  0  0  0  0
 13 29  1  0  0  0  0
 13 30  1  0  0  0  0
 13 31  1  0  0  0  0
 15 17  1  0  0  0  0
 15 32  1  0  0  0  0
 16 19  2  0  0  0  0
 16 33  1  0  0  0  0
 17 18  2  0  0  0  0
 18 19  1  0  0  0  0
 18 21  1  0  0  0  0
 19 34  1  0  0  0  0
 20 35  1  0  0  0  0
 21 23  2  0  0  0  0
 21 36  1  0  0  0  0
 22 23  1  0  0  0  0
 22 24  1  0  0  0  0
 23 39  1  0  0  0  0
 24 40  1  0  0  0  0
 24 41  1  0  0  0  0
 24 42  1  0  0  0  0
M  END
> <PUBCHEM_COMPOUND_CID>
24905219

> <PUBCHEM_COMPOUND_CANONICALIZED>
1

> <PUBCHEM_CACTVS_COMPLEXITY>
443

> <PUBCHEM_CACTVS_HBOND_ACCEPTOR>
5

> <PUBCHEM_CACTVS_HBOND_DONOR>
1

> <PUBCHEM_CACTVS_ROTATABLE_BOND>
2

> <PUBCHEM_CACTVS_SUBSKEYS>
AAADceB7gAAAAAAAAAAAAAAAAAAAAWAAAAA8WIAAAAAAAFix/gAAHAAYAAAADCjBHwQ38P5IEACiAyZjZACShCsxgqAd2CA4ZJiIKOLA2dGEpAhoiALIyCcQgMAOQAAAQAACAACAAACAAAQAAAAAAAAAAA==

> <PUBCHEM_IUPAC_OPENEYE_NAME>
1-isopropyl-3-(2-methyl-7-quinolyl)pyrazolo[3,4-d]pyrimidin-4-amine

> <PUBCHEM_IUPAC_CAS_NAME>
3-(2-methyl-7-quinolinyl)-1-propan-2-yl-4-pyrazolo[3,4-d]pyrimidinamine

> <PUBCHEM_IUPAC_NAME_MARKUP>
3-(2-methylquinolin-7-yl)-1-propan-2-ylpyrazolo[3,4-d]pyrimidin-4-amine

> <PUBCHEM_IUPAC_NAME>
3-(2-methylquinolin-7-yl)-1-propan-2-ylpyrazolo[3,4-d]pyrimidin-4-amine

> <PUBCHEM_IUPAC_SYSTEMATIC_NAME>
3-(2-methylquinolin-7-yl)-1-propan-2-yl-pyrazolo[3,4-d]pyrimidin-4-amine

> <PUBCHEM_IUPAC_TRADITIONAL_NAME>
[1-isopropyl-3-(2-methyl-7-quinolyl)pyrazolo[3,4-d]pyrimidin-4-yl]amine

> <PUBCHEM_IUPAC_INCHI>
InChI=1S/C18H18N6/c1-10(2)24-18-15(17(19)20-9-21-18)16(23-24)13-7-6-12-5-4-11(3)22-14(12)8-13/h4-10H,1-3H3,(H2,19,20,21)

> <PUBCHEM_IUPAC_INCHIKEY>
KFBBXKBRSICFJT-UHFFFAOYSA-N

> <PUBCHEM_XLOGP3_AA>
2.9

> <PUBCHEM_EXACT_MASS>
318.15929460

> <PUBCHEM_MOLECULAR_FORMULA>
C18H18N6

> <PUBCHEM_MOLECULAR_WEIGHT>
318.4

> <PUBCHEM_SMILES>
CC1=NC2=C(C=C1)C=CC(=C2)C3=NN(C4=NC=NC(=C34)N)C(C)C

> <PUBCHEM_OPENEYE_CAN_SMILES>
CC1=NC2=C(C=C1)C=CC(=C2)C3=NN(C4=NC=NC(=C34)N)C(C)C

> <PUBCHEM_OPENEYE_ISO_SMILES>
CC1=NC2=C(C=C1)C=CC(=C2)C3=NN(C4=NC=NC(=C34)N)C(C)C

> <PUBCHEM_CACTVS_TPSA>
82.5

> <PUBCHEM_MONOISOTOPIC_WEIGHT>
318.15929460

> <PUBCHEM_TOTAL_CHARGE>
0

> <PUBCHEM_HEAVY_ATOM_COUNT>
24

> <PUBCHEM_ATOM_DEF_STEREO_COUNT>
0

> <PUBCHEM_ATOM_UDEF_STEREO_COUNT>
0

> <PUBCHEM_BOND_DEF_STEREO_COUNT>
0

> <PUBCHEM_BOND_UDEF_STEREO_COUNT>
0

> <PUBCHEM_ISOTOPIC_ATOM_COUNT>
0

> <PUBCHEM_COMPONENT_COUNT>
1

> <PUBCHEM_CACTVS_TAUTO_COUNT>
-1

> <PUBCHEM_COORDINATE_TYPE>
1
5
255

> <PUBCHEM_BONDANNOTATIONS>
1  2  8
1  9  8
11  15  8
11  16  8
15  17  8
16  19  8
17  18  8
18  19  8
18  21  8
2  10  8
21  23  8
22  23  8
3  20  8
3  9  8
4  14  8
4  20  8
5  17  8
5  22  8
8  10  8
8  14  8
8  9  8

$$$$
