49830996
  -OEChem-03202500492D

 21 22  0     0  0  0  0  0  0999 V2000
    7.2622    1.0000    0.0000 O   0  0  0  0  0  0  0  0  0  0  0  0
    4.6641    0.5000    0.0000 N   0  0  0  0  0  0  0  0  0  0  0  0
    6.3961   -0.5000    0.0000 N   0  0  0  0  0  0  0  0  0  0  0  0
    5.5301   -1.0000    0.0000 N   0  0  0  0  0  0  0  0  0  0  0  0
    5.5301    1.0000    0.0000 C   0  0  0  0  0  0  0  0  0  0  0  0
    4.6641   -0.5000    0.0000 C   0  0  0  0  0  0  0  0  0  0  0  0
    3.7702    1.0347    0.0000 C   0  0  0  0  0  0  0  0  0  0  0  0
    2.8641    0.5208    0.0000 C   0  0  0  0  0  0  0  0  0  0  0  0
    3.7702   -1.0347    0.0000 C   0  0  0  0  0  0  0  0  0  0  0  0
    6.3961    0.5000    0.0000 C   0  0  0  0  0  0  0  0  0  0  0  0
    2.8641   -0.5208    0.0000 C   0  0  0  0  0  0  0  0  0  0  0  0
    2.0000    1.0241    0.0000 C   0  0  0  0  0  0  0  0  0  0  0  0
    5.9286    1.4750    0.0000 H   0  0  0  0  0  0  0  0  0  0  0  0
    5.1316    1.4750    0.0000 H   0  0  0  0  0  0  0  0  0  0  0  0
    3.7773    1.6546    0.0000 H   0  0  0  0  0  0  0  0  0  0  0  0
    3.7773   -1.6546    0.0000 H   0  0  0  0  0  0  0  0  0  0  0  0
    2.3284   -0.8329    0.0000 H   0  0  0  0  0  0  0  0  0  0  0  0
    6.9331   -0.8100    0.0000 H   0  0  0  0  0  0  0  0  0  0  0  0
    2.3121    1.5599    0.0000 H   0  0  0  0  0  0  0  0  0  0  0  0
    1.4643    1.3362    0.0000 H   0  0  0  0  0  0  0  0  0  0  0  0
    1.6879    0.4884    0.0000 H   0  0  0  0  0  0  0  0  0  0  0  0
  1 10  2  0  0  0  0
  2  5  1  0  0  0  0
  2  6  1  0  0  0  0
  2  7  1  0  0  0  0
  3  4  1  0  0  0  0
  3 10  1  0  0  0  0
  3 18  1  0  0  0  0
  4  6  2  0  0  0  0
  5 10  1  0  0  0  0
  5 13  1  0  0  0  0
  5 14  1  0  0  0  0
  6  9  1  0  0  0  0
  7  8  2  0  0  0  0
  7 15  1  0  0  0  0
  8 11  1  0  0  0  0
  8 12  1  0  0  0  0
  9 11  2  0  0  0  0
  9 16  1  0  0  0  0
 11 17  1  0  0  0  0
 12 19  1  0  0  0  0
 12 20  1  0  0  0  0
 12 21  1  0  0  0  0
M  END
> <PUBCHEM_COMPOUND_CID>
49830996

> <PUBCHEM_COMPOUND_CANONICALIZED>
1

> <PUBCHEM_CACTVS_COMPLEXITY>
314

> <PUBCHEM_CACTVS_HBOND_ACCEPTOR>
2

> <PUBCHEM_CACTVS_HBOND_DONOR>
1

> <PUBCHEM_CACTVS_ROTATABLE_BOND>
0

> <PUBCHEM_CACTVS_SUBSKEYS>
AAADccBzIAAAAAAAAAAAAAAAAAAAAAAAAAAgQAAAAAAAAACAAAAAHgAYAAAADADBgAQDAANiAACoAiN2cACQAAAgAAAbCACYABgIQAAACSAQAAAAGACIgAIAAAAAAAAAAAAAAAAAAAAAAAAAAAAAAAAAAA==

> <PUBCHEM_IUPAC_OPENEYE_NAME>
7-methyl-2,4-dihydropyrido[2,1-c][1,2,4]triazin-3-one

> <PUBCHEM_IUPAC_CAS_NAME>
7-methyl-2,4-dihydropyrido[2,1-c][1,2,4]triazin-3-one

> <PUBCHEM_IUPAC_NAME_MARKUP>
7-methyl-2,4-dihydropyrido[2,1-c][1,2,4]triazin-3-one

> <PUBCHEM_IUPAC_NAME>
7-methyl-2,4-dihydropyrido[2,1-c][1,2,4]triazin-3-one

> <PUBCHEM_IUPAC_SYSTEMATIC_NAME>
7-methyl-2,4-dihydropyrido[2,1-c][1,2,4]triazin-3-one

> <PUBCHEM_IUPAC_TRADITIONAL_NAME>
7-methyl-2,4-dihydropyrido[2,1-c][1,2,4]triazin-3-one

> <PUBCHEM_IUPAC_INCHI>
InChI=1S/C8H9N3O/c1-6-2-3-7-9-10-8(12)5-11(7)4-6/h2-4H,5H2,1H3,(H,10,12)

> <PUBCHEM_IUPAC_INCHIKEY>
WFHNZLFPQCGIRS-UHFFFAOYSA-N

> <PUBCHEM_XLOGP3_AA>
-0.3

> <PUBCHEM_EXACT_MASS>
163.074561919

> <PUBCHEM_MOLECULAR_FORMULA>
C8H9N3O

> <PUBCHEM_MOLECULAR_WEIGHT>
163.18

> <PUBCHEM_SMILES>
CC1=CN2CC(=O)NN=C2C=C1

> <PUBCHEM_OPENEYE_CAN_SMILES>
CC1=CN2CC(=O)NN=C2C=C1

> <PUBCHEM_OPENEYE_ISO_SMILES>
CC1=CN2CC(=O)NN=C2C=C1

> <PUBCHEM_CACTVS_TPSA>
44.7

> <PUBCHEM_MONOISOTOPIC_WEIGHT>
163.074561919

> <PUBCHEM_TOTAL_CHARGE>
0

> <PUBCHEM_HEAVY_ATOM_COUNT>
12

> <PUBCHEM_ATOM_DEF_STEREO_COUNT>
0

> <PUBCHEM_ATOM_UDEF_STEREO_COUNT>
0

> <PUBCHEM_BOND_DEF_STEREO_COUNT>
0

> <PUBCHEM_BOND_UDEF_STEREO_COUNT>
0

> <PUBCHEM_ISOTOPIC_ATOM_COUNT>
0

> <PUBCHEM_COMPONENT_COUNT>
1

> <PUBCHEM_CACTVS_TAUTO_COUNT>
-1

> <PUBCHEM_COORDINATE_TYPE>
1
5
255

$$$$
