11526786
  -OEChem-03202506102D

 81 84  0     1  0  0  0  0  0999 V2000
   10.3833    3.7565    0.0000 O   0  0  0  0  0  0  0  0  0  0  0  0
    6.5283    3.0012    0.0000 O   0  0  0  0  0  0  0  0  0  0  0  0
    4.6096    1.0305    0.0000 O   0  0  0  0  0  0  0  0  0  0  0  0
    9.1482   -0.5302    0.0000 O   0  0  0  0  0  0  0  0  0  0  0  0
    8.0241   -1.3316    0.0000 O   0  0  0  0  0  0  0  0  0  0  0  0
    4.7205    3.0749    0.0000 O   0  0  0  0  0  0  0  0  0  0  0  0
    3.7333   -0.5511    0.0000 O   0  0  0  0  0  0  0  0  0  0  0  0
    7.3943    4.5012    0.0000 O   0  0  0  0  0  0  0  0  0  0  0  0
    5.8904   -2.5353    0.0000 N   0  0  3  0  0  0  0  0  0  0  0  0
    2.6398   -3.7327    0.0000 N   0  0  0  0  0  0  0  0  0  0  0  0
    9.1264    2.5012    0.0000 C   0  0  1  0  0  0  0  0  0  0  0  0
    9.1264    1.5012    0.0000 C   0  0  1  0  0  0  0  0  0  0  0  0
   10.0726    2.8060    0.0000 C   0  0  2  0  0  0  0  0  0  0  0  0
    8.2604    3.0012    0.0000 C   0  0  0  0  0  0  0  0  0  0  0  0
   10.0726    1.1965    0.0000 C   0  0  0  0  0  0  0  0  0  0  0  0
    8.2604    1.0012    0.0000 C   0  0  0  0  0  0  0  0  0  0  0  0
   10.6562    2.0012    0.0000 C   0  0  0  0  0  0  0  0  0  0  0  0
    7.3943    1.5012    0.0000 C   0  0  0  0  0  0  0  0  0  0  0  0
    7.3943    2.5012    0.0000 C   0  0  2  0  0  0  0  0  0  0  0  0
    6.4843    0.9944    0.0000 C   0  0  1  0  0  0  0  0  0  0  0  0
    9.1264    3.5012    0.0000 C   0  0  0  0  0  0  0  0  0  0  0  0
    5.5575    1.5585    0.0000 C   0  0  1  0  0  0  0  0  0  0  0  0
    6.4763   -0.0472    0.0000 C   0  0  0  0  0  0  0  0  0  0  0  0
    8.2764   -0.0403    0.0000 C   0  0  0  0  0  0  0  0  0  0  0  0
    6.4920    1.9943    0.0000 C   0  0  0  0  0  0  0  0  0  0  0  0
    7.3784   -0.5680    0.0000 C   0  0  0  0  0  0  0  0  0  0  0  0
    5.5409   -0.5970    0.0000 C   0  0  0  0  0  0  0  0  0  0  0  0
    5.5768    2.5583    0.0000 C   0  0  0  0  0  0  0  0  0  0  0  0
    4.6012   -0.0545    0.0000 C   0  0  0  0  0  0  0  0  0  0  0  0
    6.5283    4.0012    0.0000 C   0  0  0  0  0  0  0  0  0  0  0  0
    5.5447   -1.5969    0.0000 C   0  0  0  0  0  0  0  0  0  0  0  0
    5.6623    4.5012    0.0000 C   0  0  0  0  0  0  0  0  0  0  0  0
    3.8450    2.5916    0.0000 C   0  0  0  0  0  0  0  0  0  0  0  0
    5.2505   -3.3038    0.0000 C   0  0  0  0  0  0  0  0  0  0  0  0
    6.8758   -2.7052    0.0000 C   0  0  0  0  0  0  0  0  0  0  0  0
    4.2651   -3.1340    0.0000 C   0  0  0  0  0  0  0  0  0  0  0  0
    3.6252   -3.9025    0.0000 C   0  0  0  0  0  0  0  0  0  0  0  0
    2.0000   -4.5012    0.0000 C   0  0  0  0  0  0  0  0  0  0  0  0
    2.2942   -2.7943    0.0000 C   0  0  0  0  0  0  0  0  0  0  0  0
    9.2163    0.6560    0.0000 H   0  0  0  0  0  0  0  0  0  0  0  0
   10.6851    2.9021    0.0000 H   0  0  0  0  0  0  0  0  0  0  0  0
    8.6589    3.4762    0.0000 H   0  0  0  0  0  0  0  0  0  0  0  0
    7.8618    3.4762    0.0000 H   0  0  0  0  0  0  0  0  0  0  0  0
    9.8216    0.6296    0.0000 H   0  0  0  0  0  0  0  0  0  0  0  0
   10.6100    0.8873    0.0000 H   0  0  0  0  0  0  0  0  0  0  0  0
   11.1171    1.5865    0.0000 H   0  0  0  0  0  0  0  0  0  0  0  0
   11.1171    2.4160    0.0000 H   0  0  0  0  0  0  0  0  0  0  0  0
    6.8574    2.1912    0.0000 H   0  0  0  0  0  0  0  0  0  0  0  0
    9.7464    3.5012    0.0000 H   0  0  0  0  0  0  0  0  0  0  0  0
    9.1264    4.1212    0.0000 H   0  0  0  0  0  0  0  0  0  0  0  0
    8.5064    3.5012    0.0000 H   0  0  0  0  0  0  0  0  0  0  0  0
    5.0260    1.8777    0.0000 H   0  0  0  0  0  0  0  0  0  0  0  0
    7.1120    1.9896    0.0000 H   0  0  0  0  0  0  0  0  0  0  0  0
    6.4968    2.6143    0.0000 H   0  0  0  0  0  0  0  0  0  0  0  0
    5.8721    1.9991    0.0000 H   0  0  0  0  0  0  0  0  0  0  0  0
   10.9899    3.8843    0.0000 H   0  0  0  0  0  0  0  0  0  0  0  0
    6.1852    2.4389    0.0000 H   0  0  0  0  0  0  0  0  0  0  0  0
    5.8000    3.1367    0.0000 H   0  0  0  0  0  0  0  0  0  0  0  0
    8.6343   -1.2216    0.0000 H   0  0  0  0  0  0  0  0  0  0  0  0
    5.0090   -1.9090    0.0000 H   0  0  0  0  0  0  0  0  0  0  0  0
    5.9723    5.0382    0.0000 H   0  0  0  0  0  0  0  0  0  0  0  0
    5.1254    4.8112    0.0000 H   0  0  0  0  0  0  0  0  0  0  0  0
    5.3523    3.9643    0.0000 H   0  0  0  0  0  0  0  0  0  0  0  0
    3.5454    3.1345    0.0000 H   0  0  0  0  0  0  0  0  0  0  0  0
    3.3022    2.2920    0.0000 H   0  0  0  0  0  0  0  0  0  0  0  0
    4.1446    2.0488    0.0000 H   0  0  0  0  0  0  0  0  0  0  0  0
    5.0407   -3.8872    0.0000 H   0  0  0  0  0  0  0  0  0  0  0  0
    5.7887   -3.6118    0.0000 H   0  0  0  0  0  0  0  0  0  0  0  0
    6.7705   -3.3162    0.0000 H   0  0  0  0  0  0  0  0  0  0  0  0
    7.4868   -2.8105    0.0000 H   0  0  0  0  0  0  0  0  0  0  0  0
    6.9812   -2.0942    0.0000 H   0  0  0  0  0  0  0  0  0  0  0  0
    4.4749   -2.5506    0.0000 H   0  0  0  0  0  0  0  0  0  0  0  0
    3.7270   -2.8260    0.0000 H   0  0  0  0  0  0  0  0  0  0  0  0
    3.4155   -4.4859    0.0000 H   0  0  0  0  0  0  0  0  0  0  0  0
    4.1634   -4.2104    0.0000 H   0  0  0  0  0  0  0  0  0  0  0  0
    1.5235   -4.1045    0.0000 H   0  0  0  0  0  0  0  0  0  0  0  0
    1.6033   -4.9777    0.0000 H   0  0  0  0  0  0  0  0  0  0  0  0
    2.4765   -4.8979    0.0000 H   0  0  0  0  0  0  0  0  0  0  0  0
    2.8759   -2.5800    0.0000 H   0  0  0  0  0  0  0  0  0  0  0  0
    2.0798   -2.2125    0.0000 H   0  0  0  0  0  0  0  0  0  0  0  0
    1.7124   -3.0086    0.0000 H   0  0  0  0  0  0  0  0  0  0  0  0
 13  1  1  1  0  0  0
  1 56  1  0  0  0  0
 19  2  1  6  0  0  0
  2 30  1  0  0  0  0
  3 22  1  0  0  0  0
  3 29  1  0  0  0  0
  4 24  2  0  0  0  0
  5 26  1  0  0  0  0
  5 59  1  0  0  0  0
  6 28  1  0  0  0  0
  6 33  1  0  0  0  0
  7 29  2  0  0  0  0
  8 30  2  0  0  0  0
  9 31  1  0  0  0  0
  9 34  1  0  0  0  0
  9 35  1  0  0  0  0
 10 37  1  0  0  0  0
 10 38  1  0  0  0  0
 10 39  1  0  0  0  0
 11 12  1  0  0  0  0
 11 13  1  0  0  0  0
 11 14  1  0  0  0  0
 11 21  1  1  0  0  0
 12 15  1  0  0  0  0
 12 16  1  0  0  0  0
 12 40  1  6  0  0  0
 13 17  1  0  0  0  0
 13 41  1  0  0  0  0
 14 19  1  0  0  0  0
 14 42  1  0  0  0  0
 14 43  1  0  0  0  0
 15 17  1  0  0  0  0
 15 44  1  0  0  0  0
 15 45  1  0  0  0  0
 16 18  2  0  0  0  0
 16 24  1  0  0  0  0
 17 46  1  0  0  0  0
 17 47  1  0  0  0  0
 18 19  1  0  0  0  0
 18 20  1  0  0  0  0
 19 48  1  0  0  0  0
 20 22  1  0  0  0  0
 20 23  1  0  0  0  0
 20 25  1  1  0  0  0
 21 49  1  0  0  0  0
 21 50  1  0  0  0  0
 21 51  1  0  0  0  0
 22 28  1  6  0  0  0
 22 52  1  0  0  0  0
 23 26  2  0  0  0  0
 23 27  1  0  0  0  0
 24 26  1  0  0  0  0
 25 53  1  0  0  0  0
 25 54  1  0  0  0  0
 25 55  1  0  0  0  0
 27 29  1  0  0  0  0
 27 31  2  0  0  0  0
 28 57  1  0  0  0  0
 28 58  1  0  0  0  0
 30 32  1  0  0  0  0
 31 60  1  0  0  0  0
 32 61  1  0  0  0  0
 32 62  1  0  0  0  0
 32 63  1  0  0  0  0
 33 64  1  0  0  0  0
 33 65  1  0  0  0  0
 33 66  1  0  0  0  0
 34 36  1  0  0  0  0
 34 67  1  0  0  0  0
 34 68  1  0  0  0  0
 35 69  1  0  0  0  0
 35 70  1  0  0  0  0
 35 71  1  0  0  0  0
 36 37  1  0  0  0  0
 36 72  1  0  0  0  0
 36 73  1  0  0  0  0
 37 74  1  0  0  0  0
 37 75  1  0  0  0  0
 38 76  1  0  0  0  0
 38 77  1  0  0  0  0
 38 78  1  0  0  0  0
 39 79  1  0  0  0  0
 39 80  1  0  0  0  0
 39 81  1  0  0  0  0
M  END
> <PUBCHEM_COMPOUND_CID>
11526786

> <PUBCHEM_COMPOUND_CANONICALIZED>
1

> <PUBCHEM_CACTVS_COMPLEXITY>
1140

> <PUBCHEM_CACTVS_HBOND_ACCEPTOR>
10

> <PUBCHEM_CACTVS_HBOND_DONOR>
2

> <PUBCHEM_CACTVS_ROTATABLE_BOND>
9

> <PUBCHEM_CACTVS_SUBSKEYS>
AAADcfB7PAAAAAAAAAAAAAAAAAAAAYAAAAAkQIAAAAAAAECAAAAAHgAACAAADxThgAYCCAMABgCIAoDWSAIAAAAgIAAACAFIAEgJFBIAYAAGUAAEwAAKocPI7PzPgAAAAAAAAAAAAAAAAAAAAIAADAAAAA==

> <PUBCHEM_IUPAC_OPENEYE_NAME>
[(1S,3aR,6E,9S,9aR,10R,11aS)-6-[[3-(dimethylamino)propyl-methyl-amino]methylene]-1,5-dihydroxy-9-(methoxymethyl)-9a,11a-dimethyl-4,7-dioxo-2,3,3a,9,10,11-hexahydro-1H-indeno[4,5-h]isochromen-10-yl] acetate

> <PUBCHEM_IUPAC_CAS_NAME>
acetic acid [(1S,3aR,6E,9S,9aR,10R,11aS)-6-[[3-(dimethylamino)propyl-methylamino]methylidene]-1,5-dihydroxy-9-(methoxymethyl)-9a,11a-dimethyl-4,7-dioxo-2,3,3a,9,10,11-hexahydro-1H-indeno[4,5-h][2]benzopyran-10-yl] ester

> <PUBCHEM_IUPAC_NAME_MARKUP>
[(1<I>S</I>,3<I>a</I><I>R</I>,6<I>E</I>,9<I>S</I>,9<I>a</I><I>R</I>,10<I>R</I>,11<I>a</I><I>S</I>)-6-[[3-(dimethylamino)propyl-methylamino]methylidene]-1,5-dihydroxy-9-(methoxymethyl)-9<I>a</I>,11<I>a</I>-dimethyl-4,7-dioxo-2,3,3<I>a</I>,9,10,11-hexahydro-1<I>H</I>-indeno[4,5-h]isochromen-10-yl] acetate

> <PUBCHEM_IUPAC_NAME>
[(1S,3aR,6E,9S,9aR,10R,11aS)-6-[[3-(dimethylamino)propyl-methylamino]methylidene]-1,5-dihydroxy-9-(methoxymethyl)-9a,11a-dimethyl-4,7-dioxo-2,3,3a,9,10,11-hexahydro-1H-indeno[4,5-h]isochromen-10-yl] acetate

> <PUBCHEM_IUPAC_SYSTEMATIC_NAME>
[(1S,3aR,6E,9S,9aR,10R,11aS)-6-[[3-(dimethylamino)propyl-methyl-amino]methylidene]-9-(methoxymethyl)-9a,11a-dimethyl-1,5-bis(oxidanyl)-4,7-bis(oxidanylidene)-2,3,3a,9,10,11-hexahydro-1H-indeno[4,5-h]isochromen-10-yl] ethanoate

> <PUBCHEM_IUPAC_TRADITIONAL_NAME>
acetic acid [(1S,3aR,6E,9S,9aR,10R,11aS)-6-[[3-(dimethylamino)propyl-methyl-amino]methylene]-1,5-dihydroxy-4,7-diketo-9-(methoxymethyl)-9a,11a-dimethyl-2,3,3a,9,10,11-hexahydro-1H-inden[4,5-h]isochromen-10-yl] ester

> <PUBCHEM_IUPAC_INCHI>
InChI=1S/C29H42N2O8/c1-16(32)38-19-13-28(2)18(9-10-20(28)33)22-24(19)29(3)21(15-37-7)39-27(36)17(23(29)26(35)25(22)34)14-31(6)12-8-11-30(4)5/h14,18-21,33,35H,8-13,15H2,1-7H3/b17-14+/t18-,19+,20-,21+,28-,29-/m0/s1

> <PUBCHEM_IUPAC_INCHIKEY>
YDFKITVDFUHUQY-DATHZOKXSA-N

> <PUBCHEM_XLOGP3_AA>
1.1

> <PUBCHEM_EXACT_MASS>
546.29411630

> <PUBCHEM_MOLECULAR_FORMULA>
C29H42N2O8

> <PUBCHEM_MOLECULAR_WEIGHT>
546.7

> <PUBCHEM_SMILES>
CC(=O)O[C@@H]1C[C@]2([C@@H](CC[C@@H]2O)C3=C1[C@]4([C@H](OC(=O)/C(=C/N(C)CCCN(C)C)/C4=C(C3=O)O)COC)C)C

> <PUBCHEM_OPENEYE_CAN_SMILES>
CC(=O)OC1CC2(C(CCC2O)C3=C1C4(C(OC(=O)C(=CN(C)CCCN(C)C)C4=C(C3=O)O)COC)C)C

> <PUBCHEM_OPENEYE_ISO_SMILES>
CC(=O)O[C@@H]1C[C@]2([C@@H](CC[C@@H]2O)C3=C1[C@]4([C@H](OC(=O)/C(=C/N(C)CCCN(C)C)/C4=C(C3=O)O)COC)C)C

> <PUBCHEM_CACTVS_TPSA>
126

> <PUBCHEM_MONOISOTOPIC_WEIGHT>
546.29411630

> <PUBCHEM_TOTAL_CHARGE>
0

> <PUBCHEM_HEAVY_ATOM_COUNT>
39

> <PUBCHEM_ATOM_DEF_STEREO_COUNT>
6

> <PUBCHEM_ATOM_UDEF_STEREO_COUNT>
0

> <PUBCHEM_BOND_DEF_STEREO_COUNT>
1

> <PUBCHEM_BOND_UDEF_STEREO_COUNT>
0

> <PUBCHEM_ISOTOPIC_ATOM_COUNT>
0

> <PUBCHEM_COMPONENT_COUNT>
1

> <PUBCHEM_CACTVS_TAUTO_COUNT>
-1

> <PUBCHEM_COORDINATE_TYPE>
1
5
255

> <PUBCHEM_BONDANNOTATIONS>
13  1  5
11  21  5
12  40  6
19  2  6
20  25  5
22  28  6

$$$$
