11530963
  -OEChem-03202504312D

 46 49  0     0  0  0  0  0  0999 V2000
    8.8445   -0.4134    0.0000 O   0  0  0  0  0  0  0  0  0  0  0  0
    6.7803    2.4381    0.0000 O   0  0  0  0  0  0  0  0  0  0  0  0
    3.4955   -1.0484    0.0000 O   0  0  0  0  0  0  0  0  0  0  0  0
    3.5015    2.4157    0.0000 O   0  0  0  0  0  0  0  0  0  0  0  0
    2.4985    0.6854    0.0000 O   0  0  0  0  0  0  0  0  0  0  0  0
    6.7742   -2.6916    0.0000 N   0  0  0  0  0  0  0  0  0  0  0  0
    8.0382    1.1758    0.0000 N   0  0  0  0  0  0  0  0  0  0  0  0
    7.0849   -0.1316    0.0000 C   0  0  0  0  0  0  0  0  0  0  0  0
    6.7742   -1.0821    0.0000 C   0  0  0  0  0  0  0  0  0  0  0  0
    6.4985    0.6785    0.0000 C   0  0  0  0  0  0  0  0  0  0  0  0
    5.8280   -1.3868    0.0000 C   0  0  0  0  0  0  0  0  0  0  0  0
    5.8280   -2.3868    0.0000 C   0  0  0  0  0  0  0  0  0  0  0  0
    5.4985    0.6802    0.0000 C   0  0  0  0  0  0  0  0  0  0  0  0
    7.3578   -1.8868    0.0000 C   0  0  0  0  0  0  0  0  0  0  0  0
    8.0365    0.1758    0.0000 C   0  0  0  0  0  0  0  0  0  0  0  0
    7.0877    1.4865    0.0000 C   0  0  0  0  0  0  0  0  0  0  0  0
    4.9620   -0.8868    0.0000 C   0  0  0  0  0  0  0  0  0  0  0  0
    5.0000    1.5471    0.0000 C   0  0  0  0  0  0  0  0  0  0  0  0
    4.9970   -0.1850    0.0000 C   0  0  0  0  0  0  0  0  0  0  0  0
    4.9620   -2.8868    0.0000 C   0  0  0  0  0  0  0  0  0  0  0  0
    3.9970   -0.1832    0.0000 C   0  0  0  0  0  0  0  0  0  0  0  0
    4.0000    1.5488    0.0000 C   0  0  0  0  0  0  0  0  0  0  0  0
    3.4985    0.6837    0.0000 C   0  0  0  0  0  0  0  0  0  0  0  0
    4.0960   -1.3868    0.0000 C   0  0  0  0  0  0  0  0  0  0  0  0
    4.0960   -2.3868    0.0000 C   0  0  0  0  0  0  0  0  0  0  0  0
    2.4955   -1.0467    0.0000 C   0  0  0  0  0  0  0  0  0  0  0  0
    4.0030    3.2809    0.0000 C   0  0  0  0  0  0  0  0  0  0  0  0
    2.0000    1.5523    0.0000 C   0  0  0  0  0  0  0  0  0  0  0  0
    7.9778   -1.8868    0.0000 H   0  0  0  0  0  0  0  0  0  0  0  0
    6.9668   -3.2809    0.0000 H   0  0  0  0  0  0  0  0  0  0  0  0
    8.5404    1.5394    0.0000 H   0  0  0  0  0  0  0  0  0  0  0  0
    4.9620   -0.2668    0.0000 H   0  0  0  0  0  0  0  0  0  0  0  0
    5.3109    2.0835    0.0000 H   0  0  0  0  0  0  0  0  0  0  0  0
    5.3061   -0.7224    0.0000 H   0  0  0  0  0  0  0  0  0  0  0  0
    4.9620   -3.5068    0.0000 H   0  0  0  0  0  0  0  0  0  0  0  0
    3.5590   -1.0768    0.0000 H   0  0  0  0  0  0  0  0  0  0  0  0
    3.5590   -2.6968    0.0000 H   0  0  0  0  0  0  0  0  0  0  0  0
    2.4966   -0.4267    0.0000 H   0  0  0  0  0  0  0  0  0  0  0  0
    1.8755   -1.0456    0.0000 H   0  0  0  0  0  0  0  0  0  0  0  0
    2.4944   -1.6666    0.0000 H   0  0  0  0  0  0  0  0  0  0  0  0
    4.5394    2.9699    0.0000 H   0  0  0  0  0  0  0  0  0  0  0  0
    4.3139    3.8173    0.0000 H   0  0  0  0  0  0  0  0  0  0  0  0
    3.4666    3.5918    0.0000 H   0  0  0  0  0  0  0  0  0  0  0  0
    2.5375    1.8614    0.0000 H   0  0  0  0  0  0  0  0  0  0  0  0
    1.6909    2.0898    0.0000 H   0  0  0  0  0  0  0  0  0  0  0  0
    1.4625    1.2432    0.0000 H   0  0  0  0  0  0  0  0  0  0  0  0
  1 15  2  0  0  0  0
  2 16  2  0  0  0  0
  3 21  1  0  0  0  0
  3 26  1  0  0  0  0
  4 22  1  0  0  0  0
  4 27  1  0  0  0  0
  5 23  1  0  0  0  0
  5 28  1  0  0  0  0
  6 12  1  0  0  0  0
  6 14  1  0  0  0  0
  6 30  1  0  0  0  0
  7 15  1  0  0  0  0
  7 16  1  0  0  0  0
  7 31  1  0  0  0  0
  8  9  1  0  0  0  0
  8 10  2  0  0  0  0
  8 15  1  0  0  0  0
  9 11  1  0  0  0  0
  9 14  2  0  0  0  0
 10 13  1  0  0  0  0
 10 16  1  0  0  0  0
 11 12  1  0  0  0  0
 11 17  2  0  0  0  0
 12 20  2  0  0  0  0
 13 18  2  0  0  0  0
 13 19  1  0  0  0  0
 14 29  1  0  0  0  0
 17 24  1  0  0  0  0
 17 32  1  0  0  0  0
 18 22  1  0  0  0  0
 18 33  1  0  0  0  0
 19 21  2  0  0  0  0
 19 34  1  0  0  0  0
 20 25  1  0  0  0  0
 20 35  1  0  0  0  0
 21 23  1  0  0  0  0
 22 23  2  0  0  0  0
 24 25  2  0  0  0  0
 24 36  1  0  0  0  0
 25 37  1  0  0  0  0
 26 38  1  0  0  0  0
 26 39  1  0  0  0  0
 26 40  1  0  0  0  0
 27 41  1  0  0  0  0
 27 42  1  0  0  0  0
 27 43  1  0  0  0  0
 28 44  1  0  0  0  0
 28 45  1  0  0  0  0
 28 46  1  0  0  0  0
M  END
> <PUBCHEM_COMPOUND_CID>
11530963

> <PUBCHEM_COMPOUND_CANONICALIZED>
1

> <PUBCHEM_CACTVS_COMPLEXITY>
649

> <PUBCHEM_CACTVS_HBOND_ACCEPTOR>
5

> <PUBCHEM_CACTVS_HBOND_DONOR>
2

> <PUBCHEM_CACTVS_ROTATABLE_BOND>
5

> <PUBCHEM_CACTVS_SUBSKEYS>
AAADceB7OAAAAAAAAAAAAAAAAAAAAWIAAAAwYAAAAAAAAFgB9AAAHgAQAAAADAzBngY+xvLJlACoAzV3VACCiCAxIiAI2aE+7NgNJ/LEtZuEMCpl1DXK6Qec/f7eoAABCAACQABAAAIQAASAAAAAAAAAAA==

> <PUBCHEM_IUPAC_OPENEYE_NAME>
3-(1H-indol-3-yl)-4-(3,4,5-trimethoxyphenyl)pyrrole-2,5-dione

> <PUBCHEM_IUPAC_CAS_NAME>
3-(1H-indol-3-yl)-4-(3,4,5-trimethoxyphenyl)pyrrole-2,5-dione

> <PUBCHEM_IUPAC_NAME_MARKUP>
3-(1<I>H</I>-indol-3-yl)-4-(3,4,5-trimethoxyphenyl)pyrrole-2,5-dione

> <PUBCHEM_IUPAC_NAME>
3-(1H-indol-3-yl)-4-(3,4,5-trimethoxyphenyl)pyrrole-2,5-dione

> <PUBCHEM_IUPAC_SYSTEMATIC_NAME>
3-(1H-indol-3-yl)-4-(3,4,5-trimethoxyphenyl)pyrrole-2,5-dione

> <PUBCHEM_IUPAC_TRADITIONAL_NAME>
3-(1H-indol-3-yl)-4-(3,4,5-trimethoxyphenyl)-3-pyrroline-2,5-quinone

> <PUBCHEM_IUPAC_INCHI>
InChI=1S/C21H18N2O5/c1-26-15-8-11(9-16(27-2)19(15)28-3)17-18(21(25)23-20(17)24)13-10-22-14-7-5-4-6-12(13)14/h4-10,22H,1-3H3,(H,23,24,25)

> <PUBCHEM_IUPAC_INCHIKEY>
CZGMEOAMQWAJOY-UHFFFAOYSA-N

> <PUBCHEM_XLOGP3_AA>
2.6

> <PUBCHEM_EXACT_MASS>
378.12157168

> <PUBCHEM_MOLECULAR_FORMULA>
C21H18N2O5

> <PUBCHEM_MOLECULAR_WEIGHT>
378.4

> <PUBCHEM_SMILES>
COC1=CC(=CC(=C1OC)OC)C2=C(C(=O)NC2=O)C3=CNC4=CC=CC=C43

> <PUBCHEM_OPENEYE_CAN_SMILES>
COC1=CC(=CC(=C1OC)OC)C2=C(C(=O)NC2=O)C3=CNC4=CC=CC=C43

> <PUBCHEM_OPENEYE_ISO_SMILES>
COC1=CC(=CC(=C1OC)OC)C2=C(C(=O)NC2=O)C3=CNC4=CC=CC=C43

> <PUBCHEM_CACTVS_TPSA>
89.7

> <PUBCHEM_MONOISOTOPIC_WEIGHT>
378.12157168

> <PUBCHEM_TOTAL_CHARGE>
0

> <PUBCHEM_HEAVY_ATOM_COUNT>
28

> <PUBCHEM_ATOM_DEF_STEREO_COUNT>
0

> <PUBCHEM_ATOM_UDEF_STEREO_COUNT>
0

> <PUBCHEM_BOND_DEF_STEREO_COUNT>
0

> <PUBCHEM_BOND_UDEF_STEREO_COUNT>
0

> <PUBCHEM_ISOTOPIC_ATOM_COUNT>
0

> <PUBCHEM_COMPONENT_COUNT>
1

> <PUBCHEM_CACTVS_TAUTO_COUNT>
-1

> <PUBCHEM_COORDINATE_TYPE>
1
5
255

> <PUBCHEM_BONDANNOTATIONS>
11  12  8
11  17  8
12  20  8
13  18  8
13  19  8
17  24  8
18  22  8
19  21  8
20  25  8
21  23  8
22  23  8
24  25  8
6  12  8
6  14  8
9  11  8
9  14  8

$$$$
