49830388
  -OEChem-03202503112D

 46 49  0     0  0  0  0  0  0999 V2000
    8.1424   -5.0547    0.0000 S   0  0  0  0  0  0  0  0  0  0  0  0
    4.5981    0.7500    0.0000 O   0  0  0  0  0  0  0  0  0  0  0  0
    6.3301    0.7500    0.0000 N   0  0  0  0  0  0  0  0  0  0  0  0
    5.4641    2.2500    0.0000 N   0  0  0  0  0  0  0  0  0  0  0  0
    8.7260   -4.2500    0.0000 N   0  0  0  0  0  0  0  0  0  0  0  0
    6.3301   -3.2500    0.0000 C   0  0  0  0  0  0  0  0  0  0  0  0
    6.3301   -2.2500    0.0000 C   0  0  0  0  0  0  0  0  0  0  0  0
    7.1962   -3.7500    0.0000 C   0  0  0  0  0  0  0  0  0  0  0  0
    7.1962   -4.7500    0.0000 C   0  0  0  0  0  0  0  0  0  0  0  0
    7.1962   -1.7500    0.0000 C   0  0  0  0  0  0  0  0  0  0  0  0
    5.4641   -1.7500    0.0000 C   0  0  0  0  0  0  0  0  0  0  0  0
    5.4641   -3.7500    0.0000 C   0  0  0  0  0  0  0  0  0  0  0  0
    6.3301   -0.2500    0.0000 C   0  0  0  0  0  0  0  0  0  0  0  0
    4.5981    2.7500    0.0000 C   0  0  0  0  0  0  0  0  0  0  0  0
    7.1962   -0.7500    0.0000 C   0  0  0  0  0  0  0  0  0  0  0  0
    5.4641   -0.7500    0.0000 C   0  0  0  0  0  0  0  0  0  0  0  0
    2.8660    2.7500    0.0000 C   0  0  0  0  0  0  0  0  0  0  0  0
    3.7320    4.2500    0.0000 C   0  0  0  0  0  0  0  0  0  0  0  0
    6.3301   -5.2500    0.0000 C   0  0  0  0  0  0  0  0  0  0  0  0
    4.5981    3.7500    0.0000 C   0  0  0  0  0  0  0  0  0  0  0  0
    3.7320    2.2500    0.0000 C   0  0  0  0  0  0  0  0  0  0  0  0
    5.4641   -4.7500    0.0000 C   0  0  0  0  0  0  0  0  0  0  0  0
    2.8660    3.7500    0.0000 C   0  0  0  0  0  0  0  0  0  0  0  0
    8.1424   -3.4453    0.0000 C   0  0  0  0  0  0  0  0  0  0  0  0
    5.4641    1.2500    0.0000 C   0  0  0  0  0  0  0  0  0  0  0  0
    2.0000    2.2500    0.0000 C   0  0  0  0  0  0  0  0  0  0  0  0
    3.7320    5.2500    0.0000 C   0  0  0  0  0  0  0  0  0  0  0  0
    7.7331   -2.0600    0.0000 H   0  0  0  0  0  0  0  0  0  0  0  0
    4.9272   -2.0600    0.0000 H   0  0  0  0  0  0  0  0  0  0  0  0
    4.9272   -3.4400    0.0000 H   0  0  0  0  0  0  0  0  0  0  0  0
    7.7331   -0.4400    0.0000 H   0  0  0  0  0  0  0  0  0  0  0  0
    4.9272   -0.4400    0.0000 H   0  0  0  0  0  0  0  0  0  0  0  0
    5.1350    4.0600    0.0000 H   0  0  0  0  0  0  0  0  0  0  0  0
    3.7320    1.6300    0.0000 H   0  0  0  0  0  0  0  0  0  0  0  0
    6.3301   -5.8700    0.0000 H   0  0  0  0  0  0  0  0  0  0  0  0
    4.9272   -5.0600    0.0000 H   0  0  0  0  0  0  0  0  0  0  0  0
    2.3291    4.0600    0.0000 H   0  0  0  0  0  0  0  0  0  0  0  0
    8.3350   -2.8560    0.0000 H   0  0  0  0  0  0  0  0  0  0  0  0
    6.8671    1.0600    0.0000 H   0  0  0  0  0  0  0  0  0  0  0  0
    6.0010    2.5600    0.0000 H   0  0  0  0  0  0  0  0  0  0  0  0
    1.6900    2.7869    0.0000 H   0  0  0  0  0  0  0  0  0  0  0  0
    1.4631    1.9400    0.0000 H   0  0  0  0  0  0  0  0  0  0  0  0
    2.3100    1.7131    0.0000 H   0  0  0  0  0  0  0  0  0  0  0  0
    4.3520    5.2500    0.0000 H   0  0  0  0  0  0  0  0  0  0  0  0
    3.7320    5.8700    0.0000 H   0  0  0  0  0  0  0  0  0  0  0  0
    3.1120    5.2500    0.0000 H   0  0  0  0  0  0  0  0  0  0  0  0
  1  5  1  0  0  0  0
  1  9  1  0  0  0  0
  2 25  2  0  0  0  0
  3 13  1  0  0  0  0
  3 25  1  0  0  0  0
  3 39  1  0  0  0  0
  4 14  1  0  0  0  0
  4 25  1  0  0  0  0
  4 40  1  0  0  0  0
  5 24  2  0  0  0  0
  6  7  1  0  0  0  0
  6  8  2  0  0  0  0
  6 12  1  0  0  0  0
  7 10  2  0  0  0  0
  7 11  1  0  0  0  0
  8  9  1  0  0  0  0
  8 24  1  0  0  0  0
  9 19  2  0  0  0  0
 10 15  1  0  0  0  0
 10 28  1  0  0  0  0
 11 16  2  0  0  0  0
 11 29  1  0  0  0  0
 12 22  2  0  0  0  0
 12 30  1  0  0  0  0
 13 15  2  0  0  0  0
 13 16  1  0  0  0  0
 14 20  2  0  0  0  0
 14 21  1  0  0  0  0
 15 31  1  0  0  0  0
 16 32  1  0  0  0  0
 17 21  2  0  0  0  0
 17 23  1  0  0  0  0
 17 26  1  0  0  0  0
 18 20  1  0  0  0  0
 18 23  2  0  0  0  0
 18 27  1  0  0  0  0
 19 22  1  0  0  0  0
 19 35  1  0  0  0  0
 20 33  1  0  0  0  0
 21 34  1  0  0  0  0
 22 36  1  0  0  0  0
 23 37  1  0  0  0  0
 24 38  1  0  0  0  0
 26 41  1  0  0  0  0
 26 42  1  0  0  0  0
 26 43  1  0  0  0  0
 27 44  1  0  0  0  0
 27 45  1  0  0  0  0
 27 46  1  0  0  0  0
M  END
> <PUBCHEM_COMPOUND_CID>
49830388

> <PUBCHEM_COMPOUND_CANONICALIZED>
1

> <PUBCHEM_CACTVS_COMPLEXITY>
498

> <PUBCHEM_CACTVS_HBOND_ACCEPTOR>
3

> <PUBCHEM_CACTVS_HBOND_DONOR>
2

> <PUBCHEM_CACTVS_ROTATABLE_BOND>
3

> <PUBCHEM_CACTVS_SUBSKEYS>
AAADceB7IABAAAAAAAAAAAAAAAAAAWAAAAAwYMAAAAAAAFgB9AAAHgQQQAAADAjBWgQ/wdLAAACsAjRnUACDABAhAgBImDggZJiIICLAkZGEIAxolAJIyCcQgMAOiAACwAAUAAAQAAWAACgAAAAAAAAAAA==

> <PUBCHEM_IUPAC_OPENEYE_NAME>
1-[4-(1,2-benzothiazol-4-yl)phenyl]-3-(3,5-dimethylphenyl)urea

> <PUBCHEM_IUPAC_CAS_NAME>
1-[4-(1,2-benzothiazol-4-yl)phenyl]-3-(3,5-dimethylphenyl)urea

> <PUBCHEM_IUPAC_NAME_MARKUP>
1-[4-(1,2-benzothiazol-4-yl)phenyl]-3-(3,5-dimethylphenyl)urea

> <PUBCHEM_IUPAC_NAME>
1-[4-(1,2-benzothiazol-4-yl)phenyl]-3-(3,5-dimethylphenyl)urea

> <PUBCHEM_IUPAC_SYSTEMATIC_NAME>
1-[4-(1,2-benzothiazol-4-yl)phenyl]-3-(3,5-dimethylphenyl)urea

> <PUBCHEM_IUPAC_TRADITIONAL_NAME>
1-[4-(1,2-benzothiazol-4-yl)phenyl]-3-(3,5-dimethylphenyl)urea

> <PUBCHEM_IUPAC_INCHI>
InChI=1S/C22H19N3OS/c1-14-10-15(2)12-18(11-14)25-22(26)24-17-8-6-16(7-9-17)19-4-3-5-21-20(19)13-23-27-21/h3-13H,1-2H3,(H2,24,25,26)

> <PUBCHEM_IUPAC_INCHIKEY>
KHOVFNRAIYTEPO-UHFFFAOYSA-N

> <PUBCHEM_XLOGP3_AA>
5.2

> <PUBCHEM_EXACT_MASS>
373.12488341

> <PUBCHEM_MOLECULAR_FORMULA>
C22H19N3OS

> <PUBCHEM_MOLECULAR_WEIGHT>
373.5

> <PUBCHEM_SMILES>
CC1=CC(=CC(=C1)NC(=O)NC2=CC=C(C=C2)C3=C4C=NSC4=CC=C3)C

> <PUBCHEM_OPENEYE_CAN_SMILES>
CC1=CC(=CC(=C1)NC(=O)NC2=CC=C(C=C2)C3=C4C=NSC4=CC=C3)C

> <PUBCHEM_OPENEYE_ISO_SMILES>
CC1=CC(=CC(=C1)NC(=O)NC2=CC=C(C=C2)C3=C4C=NSC4=CC=C3)C

> <PUBCHEM_CACTVS_TPSA>
82.3

> <PUBCHEM_MONOISOTOPIC_WEIGHT>
373.12488341

> <PUBCHEM_TOTAL_CHARGE>
0

> <PUBCHEM_HEAVY_ATOM_COUNT>
27

> <PUBCHEM_ATOM_DEF_STEREO_COUNT>
0

> <PUBCHEM_ATOM_UDEF_STEREO_COUNT>
0

> <PUBCHEM_BOND_DEF_STEREO_COUNT>
0

> <PUBCHEM_BOND_UDEF_STEREO_COUNT>
0

> <PUBCHEM_ISOTOPIC_ATOM_COUNT>
0

> <PUBCHEM_COMPONENT_COUNT>
1

> <PUBCHEM_CACTVS_TAUTO_COUNT>
-1

> <PUBCHEM_COORDINATE_TYPE>
1
5
255

> <PUBCHEM_BONDANNOTATIONS>
1  5  8
1  9  8
10  15  8
11  16  8
12  22  8
13  15  8
13  16  8
14  20  8
14  21  8
17  21  8
17  23  8
18  20  8
18  23  8
19  22  8
5  24  8
6  12  8
6  8  8
7  10  8
7  11  8
8  24  8
8  9  8
9  19  8

$$$$
