46228508
  -OEChem-03202507092D

 62 66  0     0  0  0  0  0  0999 V2000
   10.4651   -0.0677    0.0000 O   0  0  0  0  0  0  0  0  0  0  0  0
    6.1350    1.4323    0.0000 O   0  0  0  0  0  0  0  0  0  0  0  0
   13.8610   -2.0677    0.0000 O   0  0  0  0  0  0  0  0  0  0  0  0
    3.4894    0.0255    0.0000 N   0  0  0  0  0  0  0  0  0  0  0  0
    2.8203    0.7687    0.0000 N   0  0  0  0  0  0  0  0  0  0  0  0
    5.2690   -0.0677    0.0000 N   0  0  0  0  0  0  0  0  0  0  0  0
    7.0010   -0.0677    0.0000 N   0  0  0  0  0  0  0  0  0  0  0  0
   12.2774   -1.2630    0.0000 N   0  0  0  0  0  0  0  0  0  0  0  0
   12.2774   -2.8725    0.0000 N   0  0  0  0  0  0  0  0  0  0  0  0
    2.9136    2.5482    0.0000 C   0  0  0  0  0  0  0  0  0  0  0  0
    3.3203    1.6347    0.0000 C   0  0  0  0  0  0  0  0  0  0  0  0
    2.5068    3.4618    0.0000 C   0  0  0  0  0  0  0  0  0  0  0  0
    2.0000    2.1415    0.0000 C   0  0  0  0  0  0  0  0  0  0  0  0
    3.8271    2.9550    0.0000 C   0  0  0  0  0  0  0  0  0  0  0  0
    4.2984    1.4268    0.0000 C   0  0  0  0  0  0  0  0  0  0  0  0
    4.4030    0.4323    0.0000 C   0  0  0  0  0  0  0  0  0  0  0  0
    3.2815   -0.9526    0.0000 C   0  0  0  0  0  0  0  0  0  0  0  0
    2.3304   -1.2616    0.0000 C   0  0  0  0  0  0  0  0  0  0  0  0
    4.0246   -1.6218    0.0000 C   0  0  0  0  0  0  0  0  0  0  0  0
    6.1350    0.4323    0.0000 C   0  0  0  0  0  0  0  0  0  0  0  0
   11.3312   -1.5677    0.0000 C   0  0  0  0  0  0  0  0  0  0  0  0
   11.3312   -2.5677    0.0000 C   0  0  0  0  0  0  0  0  0  0  0  0
    2.1225   -2.2398    0.0000 C   0  0  0  0  0  0  0  0  0  0  0  0
    3.8167   -2.5999    0.0000 C   0  0  0  0  0  0  0  0  0  0  0  0
   10.4651   -1.0677    0.0000 C   0  0  0  0  0  0  0  0  0  0  0  0
    7.8671    0.4323    0.0000 C   0  0  0  0  0  0  0  0  0  0  0  0
    2.8657   -2.9089    0.0000 C   0  0  0  0  0  0  0  0  0  0  0  0
   10.4651   -3.0677    0.0000 C   0  0  0  0  0  0  0  0  0  0  0  0
    9.5991    0.4323    0.0000 C   0  0  0  0  0  0  0  0  0  0  0  0
    9.5991   -1.5677    0.0000 C   0  0  0  0  0  0  0  0  0  0  0  0
   12.8610   -2.0677    0.0000 C   0  0  0  0  0  0  0  0  0  0  0  0
    8.7331   -0.0677    0.0000 C   0  0  0  0  0  0  0  0  0  0  0  0
    9.5991   -2.5677    0.0000 C   0  0  0  0  0  0  0  0  0  0  0  0
    7.8671    1.4323    0.0000 C   0  0  0  0  0  0  0  0  0  0  0  0
    9.5991    1.4323    0.0000 C   0  0  0  0  0  0  0  0  0  0  0  0
    8.7331    1.9323    0.0000 C   0  0  0  0  0  0  0  0  0  0  0  0
    3.0732    3.7140    0.0000 H   0  0  0  0  0  0  0  0  0  0  0  0
    2.2546    4.0282    0.0000 H   0  0  0  0  0  0  0  0  0  0  0  0
    1.9404    3.2096    0.0000 H   0  0  0  0  0  0  0  0  0  0  0  0
    1.7478    2.7079    0.0000 H   0  0  0  0  0  0  0  0  0  0  0  0
    1.4336    1.8893    0.0000 H   0  0  0  0  0  0  0  0  0  0  0  0
    2.2522    1.5751    0.0000 H   0  0  0  0  0  0  0  0  0  0  0  0
    4.0793    2.3886    0.0000 H   0  0  0  0  0  0  0  0  0  0  0  0
    4.3935    3.2072    0.0000 H   0  0  0  0  0  0  0  0  0  0  0  0
    3.5749    3.5214    0.0000 H   0  0  0  0  0  0  0  0  0  0  0  0
    4.7592    1.8416    0.0000 H   0  0  0  0  0  0  0  0  0  0  0  0
    5.2690   -0.6877    0.0000 H   0  0  0  0  0  0  0  0  0  0  0  0
    1.8697   -0.8468    0.0000 H   0  0  0  0  0  0  0  0  0  0  0  0
    4.6143   -1.4302    0.0000 H   0  0  0  0  0  0  0  0  0  0  0  0
    1.5329   -2.4314    0.0000 H   0  0  0  0  0  0  0  0  0  0  0  0
    4.2775   -3.0148    0.0000 H   0  0  0  0  0  0  0  0  0  0  0  0
    7.0010   -0.6877    0.0000 H   0  0  0  0  0  0  0  0  0  0  0  0
   12.4700   -0.6737    0.0000 H   0  0  0  0  0  0  0  0  0  0  0  0
    2.7368   -3.5154    0.0000 H   0  0  0  0  0  0  0  0  0  0  0  0
   12.4700   -3.4618    0.0000 H   0  0  0  0  0  0  0  0  0  0  0  0
   10.4651   -3.6877    0.0000 H   0  0  0  0  0  0  0  0  0  0  0  0
    9.0622   -1.2577    0.0000 H   0  0  0  0  0  0  0  0  0  0  0  0
    8.7331   -0.6877    0.0000 H   0  0  0  0  0  0  0  0  0  0  0  0
    9.0622   -2.8777    0.0000 H   0  0  0  0  0  0  0  0  0  0  0  0
    7.3301    1.7423    0.0000 H   0  0  0  0  0  0  0  0  0  0  0  0
   10.1360    1.7423    0.0000 H   0  0  0  0  0  0  0  0  0  0  0  0
    8.7331    2.5523    0.0000 H   0  0  0  0  0  0  0  0  0  0  0  0
  1 25  1  0  0  0  0
  1 29  1  0  0  0  0
  2 20  2  0  0  0  0
  3 31  2  0  0  0  0
  4  5  1  0  0  0  0
  4 16  1  0  0  0  0
  4 17  1  0  0  0  0
  5 11  2  0  0  0  0
  6 16  1  0  0  0  0
  6 20  1  0  0  0  0
  6 47  1  0  0  0  0
  7 20  1  0  0  0  0
  7 26  1  0  0  0  0
  7 52  1  0  0  0  0
  8 21  1  0  0  0  0
  8 31  1  0  0  0  0
  8 53  1  0  0  0  0
  9 22  1  0  0  0  0
  9 31  1  0  0  0  0
  9 55  1  0  0  0  0
 10 11  1  0  0  0  0
 10 12  1  0  0  0  0
 10 13  1  0  0  0  0
 10 14  1  0  0  0  0
 11 15  1  0  0  0  0
 12 37  1  0  0  0  0
 12 38  1  0  0  0  0
 12 39  1  0  0  0  0
 13 40  1  0  0  0  0
 13 41  1  0  0  0  0
 13 42  1  0  0  0  0
 14 43  1  0  0  0  0
 14 44  1  0  0  0  0
 14 45  1  0  0  0  0
 15 16  2  0  0  0  0
 15 46  1  0  0  0  0
 17 18  2  0  0  0  0
 17 19  1  0  0  0  0
 18 23  1  0  0  0  0
 18 48  1  0  0  0  0
 19 24  2  0  0  0  0
 19 49  1  0  0  0  0
 21 22  2  0  0  0  0
 21 25  1  0  0  0  0
 22 28  1  0  0  0  0
 23 27  2  0  0  0  0
 23 50  1  0  0  0  0
 24 27  1  0  0  0  0
 24 51  1  0  0  0  0
 25 30  2  0  0  0  0
 26 32  2  0  0  0  0
 26 34  1  0  0  0  0
 27 54  1  0  0  0  0
 28 33  2  0  0  0  0
 28 56  1  0  0  0  0
 29 32  1  0  0  0  0
 29 35  2  0  0  0  0
 30 33  1  0  0  0  0
 30 57  1  0  0  0  0
 32 58  1  0  0  0  0
 33 59  1  0  0  0  0
 34 36  2  0  0  0  0
 34 60  1  0  0  0  0
 35 36  1  0  0  0  0
 35 61  1  0  0  0  0
 36 62  1  0  0  0  0
M  END
> <PUBCHEM_COMPOUND_CID>
46228508

> <PUBCHEM_COMPOUND_CANONICALIZED>
1

> <PUBCHEM_CACTVS_COMPLEXITY>
782

> <PUBCHEM_CACTVS_HBOND_ACCEPTOR>
4

> <PUBCHEM_CACTVS_HBOND_DONOR>
4

> <PUBCHEM_CACTVS_ROTATABLE_BOND>
6

> <PUBCHEM_CACTVS_SUBSKEYS>
AAADceB7sAAAAAAAAAAAAAAAAAAAAWLAAAAwYMAAAAAAAFgB1AAAHgAYAAAADgyBlgAz9pLIBACqASZidACSDCMhIgAdmCA3fJiOZmLE8duXvCj+3RvY6CeQUAMNAAAAAgAAECAAAAAEAAAgQAAAAAAAAA==

> <PUBCHEM_IUPAC_OPENEYE_NAME>
1-(5-tert-butyl-2-phenyl-pyrazol-3-yl)-3-[3-[(2-oxo-1,3-dihydrobenzimidazol-4-yl)oxy]phenyl]urea

> <PUBCHEM_IUPAC_CAS_NAME>
1-(5-tert-butyl-2-phenyl-3-pyrazolyl)-3-[3-[(2-oxo-1,3-dihydrobenzimidazol-4-yl)oxy]phenyl]urea

> <PUBCHEM_IUPAC_NAME_MARKUP>
1-(5-<I>tert</I>-butyl-2-phenylpyrazol-3-yl)-3-[3-[(2-oxo-1,3-dihydrobenzimidazol-4-yl)oxy]phenyl]urea

> <PUBCHEM_IUPAC_NAME>
1-(5-tert-butyl-2-phenylpyrazol-3-yl)-3-[3-[(2-oxo-1,3-dihydrobenzimidazol-4-yl)oxy]phenyl]urea

> <PUBCHEM_IUPAC_SYSTEMATIC_NAME>
1-(5-tert-butyl-2-phenyl-pyrazol-3-yl)-3-[3-[(2-oxidanylidene-1,3-dihydrobenzimidazol-4-yl)oxy]phenyl]urea

> <PUBCHEM_IUPAC_TRADITIONAL_NAME>
1-(5-tert-butyl-2-phenyl-pyrazol-3-yl)-3-[3-[(2-keto-1,3-dihydrobenzimidazol-4-yl)oxy]phenyl]urea

> <PUBCHEM_IUPAC_INCHI>
InChI=1S/C27H26N6O3/c1-27(2,3)22-16-23(33(32-22)18-10-5-4-6-11-18)30-25(34)28-17-9-7-12-19(15-17)36-21-14-8-13-20-24(21)31-26(35)29-20/h4-16H,1-3H3,(H2,28,30,34)(H2,29,31,35)

> <PUBCHEM_IUPAC_INCHIKEY>
YLQMVIRZBOJBCV-UHFFFAOYSA-N

> <PUBCHEM_XLOGP3_AA>
4.7

> <PUBCHEM_EXACT_MASS>
482.20663871

> <PUBCHEM_MOLECULAR_FORMULA>
C27H26N6O3

> <PUBCHEM_MOLECULAR_WEIGHT>
482.5

> <PUBCHEM_SMILES>
CC(C)(C)C1=NN(C(=C1)NC(=O)NC2=CC(=CC=C2)OC3=CC=CC4=C3NC(=O)N4)C5=CC=CC=C5

> <PUBCHEM_OPENEYE_CAN_SMILES>
CC(C)(C)C1=NN(C(=C1)NC(=O)NC2=CC(=CC=C2)OC3=CC=CC4=C3NC(=O)N4)C5=CC=CC=C5

> <PUBCHEM_OPENEYE_ISO_SMILES>
CC(C)(C)C1=NN(C(=C1)NC(=O)NC2=CC(=CC=C2)OC3=CC=CC4=C3NC(=O)N4)C5=CC=CC=C5

> <PUBCHEM_CACTVS_TPSA>
109

> <PUBCHEM_MONOISOTOPIC_WEIGHT>
482.20663871

> <PUBCHEM_TOTAL_CHARGE>
0

> <PUBCHEM_HEAVY_ATOM_COUNT>
36

> <PUBCHEM_ATOM_DEF_STEREO_COUNT>
0

> <PUBCHEM_ATOM_UDEF_STEREO_COUNT>
0

> <PUBCHEM_BOND_DEF_STEREO_COUNT>
0

> <PUBCHEM_BOND_UDEF_STEREO_COUNT>
0

> <PUBCHEM_ISOTOPIC_ATOM_COUNT>
0

> <PUBCHEM_COMPONENT_COUNT>
1

> <PUBCHEM_CACTVS_TAUTO_COUNT>
-1

> <PUBCHEM_COORDINATE_TYPE>
1
5
255

> <PUBCHEM_BONDANNOTATIONS>
11  15  8
15  16  8
17  18  8
17  19  8
18  23  8
19  24  8
21  22  8
21  25  8
22  28  8
23  27  8
24  27  8
25  30  8
26  32  8
26  34  8
28  33  8
29  32  8
29  35  8
30  33  8
34  36  8
35  36  8
4  16  8
4  5  8
5  11  8
8  21  8
8  31  8
9  22  8
9  31  8

$$$$
