10369873
  -OEChem-03192523232D

 78 82  0     0  0  0  0  0  0999 V2000
    6.3166    2.3375    0.0000 O   0  0  0  0  0  0  0  0  0  0  0  0
   12.3498   -5.1858    0.0000 N   0  0  0  0  0  0  0  0  0  0  0  0
   13.2559   -4.6720    0.0000 N   0  0  0  0  0  0  0  0  0  0  0  0
   11.4857   -6.7308    0.0000 N   0  0  0  0  0  0  0  0  0  0  0  0
    7.1884    3.8341    0.0000 N   0  0  0  0  0  0  0  0  0  0  0  0
    6.3282    5.3375    0.0000 N   0  0  0  0  0  0  0  0  0  0  0  0
    5.4641    5.8408    0.0000 N   0  0  0  0  0  0  0  0  0  0  0  0
   10.6294   -2.1792    0.0000 C   0  0  0  0  0  0  0  0  0  0  0  0
    9.7653   -1.6758    0.0000 C   0  0  0  0  0  0  0  0  0  0  0  0
   10.6255   -3.1792    0.0000 C   0  0  0  0  0  0  0  0  0  0  0  0
    9.7691   -0.6759    0.0000 C   0  0  0  0  0  0  0  0  0  0  0  0
   11.4896   -3.6825    0.0000 C   0  0  0  0  0  0  0  0  0  0  0  0
    8.9050   -0.1725    0.0000 C   0  0  0  0  0  0  0  0  0  0  0  0
   11.4857   -4.6825    0.0000 C   0  0  0  0  0  0  0  0  0  0  0  0
   15.0159   -6.7066    0.0000 C   0  0  0  0  0  0  0  0  0  0  0  0
   14.1498   -6.2066    0.0000 C   0  0  0  0  0  0  0  0  0  0  0  0
    8.9089    0.8275    0.0000 C   0  0  0  0  0  0  0  0  0  0  0  0
   15.8819   -6.2066    0.0000 C   0  0  0  0  0  0  0  0  0  0  0  0
   14.1498   -5.2066    0.0000 C   0  0  0  0  0  0  0  0  0  0  0  0
   15.8819   -5.2066    0.0000 C   0  0  0  0  0  0  0  0  0  0  0  0
   15.0159   -4.7066    0.0000 C   0  0  0  0  0  0  0  0  0  0  0  0
    8.0448    1.3308    0.0000 C   0  0  0  0  0  0  0  0  0  0  0  0
   13.2559   -6.7413    0.0000 C   0  0  0  0  0  0  0  0  0  0  0  0
   12.3498   -6.2275    0.0000 C   0  0  0  0  0  0  0  0  0  0  0  0
    8.0486    2.3308    0.0000 C   0  0  0  0  0  0  0  0  0  0  0  0
   16.7919   -4.6998    0.0000 C   0  0  0  0  0  0  0  0  0  0  0  0
   14.9998   -3.6651    0.0000 C   0  0  0  0  0  0  0  0  0  0  0  0
   16.7999   -3.6582    0.0000 C   0  0  0  0  0  0  0  0  0  0  0  0
   15.8978   -3.1374    0.0000 C   0  0  0  0  0  0  0  0  0  0  0  0
    7.1846    2.8341    0.0000 C   0  0  0  0  0  0  0  0  0  0  0  0
    6.3243    4.3375    0.0000 C   0  0  0  0  0  0  0  0  0  0  0  0
    5.4564    3.8408    0.0000 C   0  0  0  0  0  0  0  0  0  0  0  0
    4.5923    4.3441    0.0000 C   0  0  0  0  0  0  0  0  0  0  0  0
    4.5961    5.3441    0.0000 C   0  0  0  0  0  0  0  0  0  0  0  0
    3.7320    5.8475    0.0000 C   0  0  0  0  0  0  0  0  0  0  0  0
    3.7359    6.8475    0.0000 C   0  0  0  0  0  0  0  0  0  0  0  0
    2.8641    5.3508    0.0000 C   0  0  0  0  0  0  0  0  0  0  0  0
    2.8718    7.3508    0.0000 C   0  0  0  0  0  0  0  0  0  0  0  0
    2.0000    5.8541    0.0000 C   0  0  0  0  0  0  0  0  0  0  0  0
    2.0038    6.8541    0.0000 C   0  0  0  0  0  0  0  0  0  0  0  0
   11.2395   -2.2892    0.0000 H   0  0  0  0  0  0  0  0  0  0  0  0
   10.8436   -1.5974    0.0000 H   0  0  0  0  0  0  0  0  0  0  0  0
    9.1551   -1.5658    0.0000 H   0  0  0  0  0  0  0  0  0  0  0  0
    9.5510   -2.2576    0.0000 H   0  0  0  0  0  0  0  0  0  0  0  0
   10.0153   -3.0692    0.0000 H   0  0  0  0  0  0  0  0  0  0  0  0
   10.4112   -3.7610    0.0000 H   0  0  0  0  0  0  0  0  0  0  0  0
   10.3793   -0.7859    0.0000 H   0  0  0  0  0  0  0  0  0  0  0  0
    9.9834   -0.0941    0.0000 H   0  0  0  0  0  0  0  0  0  0  0  0
   12.0998   -3.7925    0.0000 H   0  0  0  0  0  0  0  0  0  0  0  0
   11.7039   -3.1007    0.0000 H   0  0  0  0  0  0  0  0  0  0  0  0
    8.2949   -0.0625    0.0000 H   0  0  0  0  0  0  0  0  0  0  0  0
    8.6907   -0.7543    0.0000 H   0  0  0  0  0  0  0  0  0  0  0  0
   10.8756   -4.5725    0.0000 H   0  0  0  0  0  0  0  0  0  0  0  0
   11.2714   -5.2643    0.0000 H   0  0  0  0  0  0  0  0  0  0  0  0
   14.6173   -7.1816    0.0000 H   0  0  0  0  0  0  0  0  0  0  0  0
   15.4144   -7.1816    0.0000 H   0  0  0  0  0  0  0  0  0  0  0  0
    9.5190    0.7175    0.0000 H   0  0  0  0  0  0  0  0  0  0  0  0
    9.1232    1.4093    0.0000 H   0  0  0  0  0  0  0  0  0  0  0  0
   16.0939   -6.7893    0.0000 H   0  0  0  0  0  0  0  0  0  0  0  0
   16.4925   -6.0990    0.0000 H   0  0  0  0  0  0  0  0  0  0  0  0
    7.4346    1.4408    0.0000 H   0  0  0  0  0  0  0  0  0  0  0  0
    7.8305    0.7490    0.0000 H   0  0  0  0  0  0  0  0  0  0  0  0
   13.2631   -7.3613    0.0000 H   0  0  0  0  0  0  0  0  0  0  0  0
    8.6588    2.2208    0.0000 H   0  0  0  0  0  0  0  0  0  0  0  0
    8.2629    2.9126    0.0000 H   0  0  0  0  0  0  0  0  0  0  0  0
   17.3252   -5.0160    0.0000 H   0  0  0  0  0  0  0  0  0  0  0  0
   14.4593   -3.3614    0.0000 H   0  0  0  0  0  0  0  0  0  0  0  0
   17.3380   -3.3503    0.0000 H   0  0  0  0  0  0  0  0  0  0  0  0
   15.8954   -2.5174    0.0000 H   0  0  0  0  0  0  0  0  0  0  0  0
   11.4881   -7.3508    0.0000 H   0  0  0  0  0  0  0  0  0  0  0  0
    7.7265    4.1421    0.0000 H   0  0  0  0  0  0  0  0  0  0  0  0
    5.4540    3.2208    0.0000 H   0  0  0  0  0  0  0  0  0  0  0  0
    4.0542    4.0362    0.0000 H   0  0  0  0  0  0  0  0  0  0  0  0
    4.2740    7.1554    0.0000 H   0  0  0  0  0  0  0  0  0  0  0  0
    2.8617    4.7308    0.0000 H   0  0  0  0  0  0  0  0  0  0  0  0
    2.8742    7.9708    0.0000 H   0  0  0  0  0  0  0  0  0  0  0  0
    1.4619    5.5462    0.0000 H   0  0  0  0  0  0  0  0  0  0  0  0
    1.4681    7.1662    0.0000 H   0  0  0  0  0  0  0  0  0  0  0  0
  1 30  2  0  0  0  0
  2  3  1  0  0  0  0
  2 14  1  0  0  0  0
  2 24  1  0  0  0  0
  3 19  2  0  0  0  0
  4 24  2  0  0  0  0
  4 70  1  0  0  0  0
  5 30  1  0  0  0  0
  5 31  1  0  0  0  0
  5 71  1  0  0  0  0
  6  7  1  0  0  0  0
  6 31  2  0  0  0  0
  7 34  2  0  0  0  0
  8  9  1  0  0  0  0
  8 10  1  0  0  0  0
  8 41  1  0  0  0  0
  8 42  1  0  0  0  0
  9 11  1  0  0  0  0
  9 43  1  0  0  0  0
  9 44  1  0  0  0  0
 10 12  1  0  0  0  0
 10 45  1  0  0  0  0
 10 46  1  0  0  0  0
 11 13  1  0  0  0  0
 11 47  1  0  0  0  0
 11 48  1  0  0  0  0
 12 14  1  0  0  0  0
 12 49  1  0  0  0  0
 12 50  1  0  0  0  0
 13 17  1  0  0  0  0
 13 51  1  0  0  0  0
 13 52  1  0  0  0  0
 14 53  1  0  0  0  0
 14 54  1  0  0  0  0
 15 16  1  0  0  0  0
 15 18  1  0  0  0  0
 15 55  1  0  0  0  0
 15 56  1  0  0  0  0
 16 19  1  0  0  0  0
 16 23  2  0  0  0  0
 17 22  1  0  0  0  0
 17 57  1  0  0  0  0
 17 58  1  0  0  0  0
 18 20  1  0  0  0  0
 18 59  1  0  0  0  0
 18 60  1  0  0  0  0
 19 21  1  0  0  0  0
 20 21  1  0  0  0  0
 20 26  2  0  0  0  0
 21 27  2  0  0  0  0
 22 25  1  0  0  0  0
 22 61  1  0  0  0  0
 22 62  1  0  0  0  0
 23 24  1  0  0  0  0
 23 63  1  0  0  0  0
 25 30  1  0  0  0  0
 25 64  1  0  0  0  0
 25 65  1  0  0  0  0
 26 28  1  0  0  0  0
 26 66  1  0  0  0  0
 27 29  1  0  0  0  0
 27 67  1  0  0  0  0
 28 29  2  0  0  0  0
 28 68  1  0  0  0  0
 29 69  1  0  0  0  0
 31 32  1  0  0  0  0
 32 33  2  0  0  0  0
 32 72  1  0  0  0  0
 33 34  1  0  0  0  0
 33 73  1  0  0  0  0
 34 35  1  0  0  0  0
 35 36  2  0  0  0  0
 35 37  1  0  0  0  0
 36 38  1  0  0  0  0
 36 74  1  0  0  0  0
 37 39  2  0  0  0  0
 37 75  1  0  0  0  0
 38 40  2  0  0  0  0
 38 76  1  0  0  0  0
 39 40  1  0  0  0  0
 39 77  1  0  0  0  0
 40 78  1  0  0  0  0
M  END
> <PUBCHEM_COMPOUND_CID>
10369873

> <PUBCHEM_COMPOUND_CANONICALIZED>
1

> <PUBCHEM_CACTVS_COMPLEXITY>
893

> <PUBCHEM_CACTVS_HBOND_ACCEPTOR>
5

> <PUBCHEM_CACTVS_HBOND_DONOR>
2

> <PUBCHEM_CACTVS_ROTATABLE_BOND>
13

> <PUBCHEM_CACTVS_SUBSKEYS>
AAADcfB/oAAAAAAAAAAAAAAAAAAAAAAAAAA8YMECAAAAAADB0AAAHgAYAAAADAjBngQxsJLAAACqAydycACSBAKhAgAdmCE4ZJiIILLAmZGEoAhwnQLIyAcYiICOgAAAAAAQAAAAAAAAACAAAAAAAAAAAA==

> <PUBCHEM_IUPAC_OPENEYE_NAME>
11-(3-imino-5,6-dihydrobenzo[h]cinnolin-2-yl)-N-(6-phenylpyridazin-3-yl)undecanamide

> <PUBCHEM_IUPAC_CAS_NAME>
11-(3-imino-5,6-dihydrobenzo[h]cinnolin-2-yl)-N-(6-phenyl-3-pyridazinyl)undecanamide

> <PUBCHEM_IUPAC_NAME_MARKUP>
11-(3-imino-5,6-dihydrobenzo[h]cinnolin-2-yl)-<I>N</I>-(6-phenylpyridazin-3-yl)undecanamide

> <PUBCHEM_IUPAC_NAME>
11-(3-imino-5,6-dihydrobenzo[h]cinnolin-2-yl)-N-(6-phenylpyridazin-3-yl)undecanamide

> <PUBCHEM_IUPAC_SYSTEMATIC_NAME>
11-(3-azanylidene-5,6-dihydrobenzo[h]cinnolin-2-yl)-N-(6-phenylpyridazin-3-yl)undecanamide

> <PUBCHEM_IUPAC_TRADITIONAL_NAME>
11-(3-imino-5,6-dihydrobenzo[h]cinnolin-2-yl)-N-(6-phenylpyridazin-3-yl)undecanamide

> <PUBCHEM_IUPAC_INCHI>
InChI=1S/C33H38N6O/c34-30-24-27-20-19-25-14-11-12-17-28(25)33(27)38-39(30)23-13-6-4-2-1-3-5-10-18-32(40)35-31-22-21-29(36-37-31)26-15-8-7-9-16-26/h7-9,11-12,14-17,21-22,24,34H,1-6,10,13,18-20,23H2,(H,35,37,40)

> <PUBCHEM_IUPAC_INCHIKEY>
FLCBFAJEDBMOOP-UHFFFAOYSA-N

> <PUBCHEM_XLOGP3_AA>
6.3

> <PUBCHEM_EXACT_MASS>
534.31070986

> <PUBCHEM_MOLECULAR_FORMULA>
C33H38N6O

> <PUBCHEM_MOLECULAR_WEIGHT>
534.7

> <PUBCHEM_SMILES>
C1CC2=CC(=N)N(N=C2C3=CC=CC=C31)CCCCCCCCCCC(=O)NC4=NN=C(C=C4)C5=CC=CC=C5

> <PUBCHEM_OPENEYE_CAN_SMILES>
C1CC2=CC(=N)N(N=C2C3=CC=CC=C31)CCCCCCCCCCC(=O)NC4=NN=C(C=C4)C5=CC=CC=C5

> <PUBCHEM_OPENEYE_ISO_SMILES>
C1CC2=CC(=N)N(N=C2C3=CC=CC=C31)CCCCCCCCCCC(=O)NC4=NN=C(C=C4)C5=CC=CC=C5

> <PUBCHEM_CACTVS_TPSA>
94.3

> <PUBCHEM_MONOISOTOPIC_WEIGHT>
534.31070986

> <PUBCHEM_TOTAL_CHARGE>
0

> <PUBCHEM_HEAVY_ATOM_COUNT>
40

> <PUBCHEM_ATOM_DEF_STEREO_COUNT>
0

> <PUBCHEM_ATOM_UDEF_STEREO_COUNT>
0

> <PUBCHEM_BOND_DEF_STEREO_COUNT>
0

> <PUBCHEM_BOND_UDEF_STEREO_COUNT>
0

> <PUBCHEM_ISOTOPIC_ATOM_COUNT>
0

> <PUBCHEM_COMPONENT_COUNT>
1

> <PUBCHEM_CACTVS_TAUTO_COUNT>
-1

> <PUBCHEM_COORDINATE_TYPE>
1
5
255

> <PUBCHEM_BONDANNOTATIONS>
16  19  8
16  23  8
2  24  8
2  3  8
20  21  8
20  26  8
21  27  8
23  24  8
26  28  8
27  29  8
28  29  8
3  19  8
31  32  8
32  33  8
33  34  8
35  36  8
35  37  8
36  38  8
37  39  8
38  40  8
39  40  8
6  31  8
6  7  8
7  34  8

$$$$
