54759168
  -OEChem-03202500412D

 58 61  0     0  0  0  0  0  0999 V2000
    3.3660   -1.1160    0.0000 F   0  0  0  0  0  0  0  0  0  0  0  0
    2.0000   -0.7500    0.0000 F   0  0  0  0  0  0  0  0  0  0  0  0
    2.3660    0.6160    0.0000 F   0  0  0  0  0  0  0  0  0  0  0  0
    3.7320    0.2500    0.0000 O   0  0  0  0  0  0  0  0  0  0  0  0
    9.8298   -1.6750    0.0000 O   0  0  0  0  0  0  0  0  0  0  0  0
    7.1962   -1.7500    0.0000 N   0  0  0  0  0  0  0  0  0  0  0  0
    8.9282   -2.7500    0.0000 N   0  0  0  0  0  0  0  0  0  0  0  0
    5.4641    1.2500    0.0000 N   0  0  0  0  0  0  0  0  0  0  0  0
    9.8418    1.6567    0.0000 N   0  0  0  0  0  0  0  0  0  0  0  0
    7.1962    1.2500    0.0000 N   0  0  0  0  0  0  0  0  0  0  0  0
    6.3301    2.7500    0.0000 N   0  0  0  0  0  0  0  0  0  0  0  0
   11.4121   -0.9705    0.0000 N   0  0  0  0  0  0  0  0  0  0  0  0
    7.1962   -2.7500    0.0000 C   0  0  0  0  0  0  0  0  0  0  0  0
    8.0622   -1.2500    0.0000 C   0  0  0  0  0  0  0  0  0  0  0  0
    8.0622   -3.2500    0.0000 C   0  0  0  0  0  0  0  0  0  0  0  0
    8.9282   -1.7500    0.0000 C   0  0  0  0  0  0  0  0  0  0  0  0
    6.3301   -1.2500    0.0000 C   0  0  0  0  0  0  0  0  0  0  0  0
    9.7942   -3.2500    0.0000 C   0  0  0  0  0  0  0  0  0  0  0  0
    6.3301   -0.2500    0.0000 C   0  0  0  0  0  0  0  0  0  0  0  0
    5.4641   -1.7500    0.0000 C   0  0  0  0  0  0  0  0  0  0  0  0
    5.4641    0.2500    0.0000 C   0  0  0  0  0  0  0  0  0  0  0  0
    4.5981   -1.2500    0.0000 C   0  0  0  0  0  0  0  0  0  0  0  0
    4.5981   -0.2500    0.0000 C   0  0  0  0  0  0  0  0  0  0  0  0
    6.3301    1.7500    0.0000 C   0  0  0  0  0  0  0  0  0  0  0  0
    8.9282    1.2500    0.0000 C   0  0  0  0  0  0  0  0  0  0  0  0
    8.0622    1.7500    0.0000 C   0  0  0  0  0  0  0  0  0  0  0  0
    9.0327    0.2555    0.0000 C   0  0  0  0  0  0  0  0  0  0  0  0
   10.0109    0.0476    0.0000 C   0  0  0  0  0  0  0  0  0  0  0  0
   10.5109    0.9136    0.0000 C   0  0  0  0  0  0  0  0  0  0  0  0
    8.0622    2.7500    0.0000 C   0  0  0  0  0  0  0  0  0  0  0  0
   10.0497    2.6349    0.0000 C   0  0  0  0  0  0  0  0  0  0  0  0
    2.8660   -0.2500    0.0000 C   0  0  0  0  0  0  0  0  0  0  0  0
    7.1962    3.2500    0.0000 C   0  0  0  0  0  0  0  0  0  0  0  0
   10.4176   -0.8660    0.0000 C   0  0  0  0  0  0  0  0  0  0  0  0
    6.5856   -2.6423    0.0000 H   0  0  0  0  0  0  0  0  0  0  0  0
    6.9841   -3.3326    0.0000 H   0  0  0  0  0  0  0  0  0  0  0  0
    8.4607   -0.7751    0.0000 H   0  0  0  0  0  0  0  0  0  0  0  0
    7.6636   -0.7751    0.0000 H   0  0  0  0  0  0  0  0  0  0  0  0
    7.6636   -3.7250    0.0000 H   0  0  0  0  0  0  0  0  0  0  0  0
    8.4607   -3.7250    0.0000 H   0  0  0  0  0  0  0  0  0  0  0  0
    9.5388   -1.8577    0.0000 H   0  0  0  0  0  0  0  0  0  0  0  0
    9.1403   -1.1674    0.0000 H   0  0  0  0  0  0  0  0  0  0  0  0
    9.4842   -3.7869    0.0000 H   0  0  0  0  0  0  0  0  0  0  0  0
   10.3312   -3.5600    0.0000 H   0  0  0  0  0  0  0  0  0  0  0  0
   10.1042   -2.7131    0.0000 H   0  0  0  0  0  0  0  0  0  0  0  0
    6.8671    0.0600    0.0000 H   0  0  0  0  0  0  0  0  0  0  0  0
    5.4641   -2.3700    0.0000 H   0  0  0  0  0  0  0  0  0  0  0  0
    4.0611   -1.5600    0.0000 H   0  0  0  0  0  0  0  0  0  0  0  0
    4.9272    1.5600    0.0000 H   0  0  0  0  0  0  0  0  0  0  0  0
    8.5720   -0.1594    0.0000 H   0  0  0  0  0  0  0  0  0  0  0  0
   11.1275    0.9784    0.0000 H   0  0  0  0  0  0  0  0  0  0  0  0
    8.5991    3.0600    0.0000 H   0  0  0  0  0  0  0  0  0  0  0  0
   10.6561    2.5060    0.0000 H   0  0  0  0  0  0  0  0  0  0  0  0
   10.1786    3.2413    0.0000 H   0  0  0  0  0  0  0  0  0  0  0  0
    9.4432    2.7638    0.0000 H   0  0  0  0  0  0  0  0  0  0  0  0
    7.1962    3.8700    0.0000 H   0  0  0  0  0  0  0  0  0  0  0  0
   11.6643   -1.5369    0.0000 H   0  0  0  0  0  0  0  0  0  0  0  0
   11.7766   -0.4689    0.0000 H   0  0  0  0  0  0  0  0  0  0  0  0
  1 32  1  0  0  0  0
  2 32  1  0  0  0  0
  3 32  1  0  0  0  0
  4 23  1  0  0  0  0
  4 32  1  0  0  0  0
  5 34  2  0  0  0  0
  6 13  1  0  0  0  0
  6 14  1  0  0  0  0
  6 17  1  0  0  0  0
  7 15  1  0  0  0  0
  7 16  1  0  0  0  0
  7 18  1  0  0  0  0
  8 21  1  0  0  0  0
  8 24  1  0  0  0  0
  8 49  1  0  0  0  0
  9 25  1  0  0  0  0
  9 29  1  0  0  0  0
  9 31  1  0  0  0  0
 10 24  1  0  0  0  0
 10 26  2  0  0  0  0
 11 24  2  0  0  0  0
 11 33  1  0  0  0  0
 12 34  1  0  0  0  0
 12 57  1  0  0  0  0
 12 58  1  0  0  0  0
 13 15  1  0  0  0  0
 13 35  1  0  0  0  0
 13 36  1  0  0  0  0
 14 16  1  0  0  0  0
 14 37  1  0  0  0  0
 14 38  1  0  0  0  0
 15 39  1  0  0  0  0
 15 40  1  0  0  0  0
 16 41  1  0  0  0  0
 16 42  1  0  0  0  0
 17 19  2  0  0  0  0
 17 20  1  0  0  0  0
 18 43  1  0  0  0  0
 18 44  1  0  0  0  0
 18 45  1  0  0  0  0
 19 21  1  0  0  0  0
 19 46  1  0  0  0  0
 20 22  2  0  0  0  0
 20 47  1  0  0  0  0
 21 23  2  0  0  0  0
 22 23  1  0  0  0  0
 22 48  1  0  0  0  0
 25 26  1  0  0  0  0
 25 27  2  0  0  0  0
 26 30  1  0  0  0  0
 27 28  1  0  0  0  0
 27 50  1  0  0  0  0
 28 29  2  0  0  0  0
 28 34  1  0  0  0  0
 29 51  1  0  0  0  0
 30 33  2  0  0  0  0
 30 52  1  0  0  0  0
 31 53  1  0  0  0  0
 31 54  1  0  0  0  0
 31 55  1  0  0  0  0
 33 56  1  0  0  0  0
M  END
> <PUBCHEM_COMPOUND_CID>
54759168

> <PUBCHEM_COMPOUND_CANONICALIZED>
1

> <PUBCHEM_CACTVS_COMPLEXITY>
692

> <PUBCHEM_CACTVS_HBOND_ACCEPTOR>
10

> <PUBCHEM_CACTVS_HBOND_DONOR>
2

> <PUBCHEM_CACTVS_ROTATABLE_BOND>
6

> <PUBCHEM_CACTVS_SUBSKEYS>
AAADceB7sYAAAAAAAAAAAAAAAAAAAWAAAAA8WIAAAAAAAAAB8AAAHwAQAAAADAzBnhQ/1pfMFACoAzV3dACCiCk1IqAJ2CE/bNiObvrE/duVNahs0BPY6ee8yUCcAEAAAAQAEAAAgAAACAAgAAAAAAAAAA==

> <PUBCHEM_IUPAC_OPENEYE_NAME>
1-methyl-5-[2-[5-(4-methylpiperazin-1-yl)-2-(trifluoromethoxy)anilino]pyrimidin-4-yl]pyrrole-3-carboxamide

> <PUBCHEM_IUPAC_CAS_NAME>
1-methyl-5-[2-[5-(4-methyl-1-piperazinyl)-2-(trifluoromethoxy)anilino]-4-pyrimidinyl]-3-pyrrolecarboxamide

> <PUBCHEM_IUPAC_NAME_MARKUP>
1-methyl-5-[2-[5-(4-methylpiperazin-1-yl)-2-(trifluoromethoxy)anilino]pyrimidin-4-yl]pyrrole-3-carboxamide

> <PUBCHEM_IUPAC_NAME>
1-methyl-5-[2-[5-(4-methylpiperazin-1-yl)-2-(trifluoromethoxy)anilino]pyrimidin-4-yl]pyrrole-3-carboxamide

> <PUBCHEM_IUPAC_SYSTEMATIC_NAME>
1-methyl-5-[2-[[5-(4-methylpiperazin-1-yl)-2-(trifluoromethyloxy)phenyl]amino]pyrimidin-4-yl]pyrrole-3-carboxamide

> <PUBCHEM_IUPAC_TRADITIONAL_NAME>
1-methyl-5-[2-[5-(4-methylpiperazino)-2-(trifluoromethoxy)anilino]pyrimidin-4-yl]pyrrole-3-carboxamide

> <PUBCHEM_IUPAC_INCHI>
InChI=1S/C22H24F3N7O2/c1-30-7-9-32(10-8-30)15-3-4-19(34-22(23,24)25)17(12-15)29-21-27-6-5-16(28-21)18-11-14(20(26)33)13-31(18)2/h3-6,11-13H,7-10H2,1-2H3,(H2,26,33)(H,27,28,29)

> <PUBCHEM_IUPAC_INCHIKEY>
HGBZKLOZYQAERY-UHFFFAOYSA-N

> <PUBCHEM_XLOGP3_AA>
2.5

> <PUBCHEM_EXACT_MASS>
475.19435752

> <PUBCHEM_MOLECULAR_FORMULA>
C22H24F3N7O2

> <PUBCHEM_MOLECULAR_WEIGHT>
475.5

> <PUBCHEM_SMILES>
CN1CCN(CC1)C2=CC(=C(C=C2)OC(F)(F)F)NC3=NC=CC(=N3)C4=CC(=CN4C)C(=O)N

> <PUBCHEM_OPENEYE_CAN_SMILES>
CN1CCN(CC1)C2=CC(=C(C=C2)OC(F)(F)F)NC3=NC=CC(=N3)C4=CC(=CN4C)C(=O)N

> <PUBCHEM_OPENEYE_ISO_SMILES>
CN1CCN(CC1)C2=CC(=C(C=C2)OC(F)(F)F)NC3=NC=CC(=N3)C4=CC(=CN4C)C(=O)N

> <PUBCHEM_CACTVS_TPSA>
102

> <PUBCHEM_MONOISOTOPIC_WEIGHT>
475.19435752

> <PUBCHEM_TOTAL_CHARGE>
0

> <PUBCHEM_HEAVY_ATOM_COUNT>
34

> <PUBCHEM_ATOM_DEF_STEREO_COUNT>
0

> <PUBCHEM_ATOM_UDEF_STEREO_COUNT>
0

> <PUBCHEM_BOND_DEF_STEREO_COUNT>
0

> <PUBCHEM_BOND_UDEF_STEREO_COUNT>
0

> <PUBCHEM_ISOTOPIC_ATOM_COUNT>
0

> <PUBCHEM_COMPONENT_COUNT>
1

> <PUBCHEM_CACTVS_TAUTO_COUNT>
-1

> <PUBCHEM_COORDINATE_TYPE>
1
5
255

> <PUBCHEM_BONDANNOTATIONS>
10  24  8
10  26  8
11  24  8
11  33  8
17  19  8
17  20  8
19  21  8
20  22  8
21  23  8
22  23  8
25  27  8
26  30  8
27  28  8
28  29  8
30  33  8
9  25  8
9  29  8

$$$$
