49830716
  -OEChem-03202500552D

 42 45  0     1  0  0  0  0  0999 V2000
    4.8692   -2.2613    0.0000 O   0  0  0  0  0  0  0  0  0  0  0  0
    3.5800   -1.1046    0.0000 N   0  0  0  0  0  0  0  0  0  0  0  0
    4.3958    2.3064    0.0000 N   0  0  0  0  0  0  0  0  0  0  0  0
    5.5938    1.2315    0.0000 N   0  0  0  0  0  0  0  0  0  0  0  0
    4.3958    4.3064    0.0000 N   0  0  0  0  0  0  0  0  0  0  0  0
    2.5836    4.1111    0.0000 N   0  0  0  0  0  0  0  0  0  0  0  0
    3.8442   -4.7004    0.0000 N   0  0  0  0  0  0  0  0  0  0  0  0
    3.9372    0.5903    0.0000 C   0  0  3  0  0  0  0  0  0  0  0  0
    2.9587    0.7965    0.0000 C   0  0  3  0  0  0  0  0  0  0  0  0
    2.2909    0.0522    0.0000 C   0  0  0  0  0  0  0  0  0  0  0  0
    4.2479   -0.3603    0.0000 C   0  0  0  0  0  0  0  0  0  0  0  0
    2.6015   -0.8983    0.0000 C   0  0  0  0  0  0  0  0  0  0  0  0
    4.6051    1.3346    0.0000 C   0  0  0  0  0  0  0  0  0  0  0  0
    2.6480    1.7470    0.0000 C   0  0  0  0  0  0  0  0  0  0  0  0
    3.8907   -2.0551    0.0000 C   0  0  0  0  0  0  0  0  0  0  0  0
    5.2619    2.8064    0.0000 C   0  0  0  0  0  0  0  0  0  0  0  0
    3.5298    2.8064    0.0000 C   0  0  0  0  0  0  0  0  0  0  0  0
    5.9989    2.1393    0.0000 C   0  0  0  0  0  0  0  0  0  0  0  0
    3.5298    3.8064    0.0000 C   0  0  0  0  0  0  0  0  0  0  0  0
    3.2229   -2.7994    0.0000 C   0  0  0  0  0  0  0  0  0  0  0  0
    5.2619    3.8064    0.0000 C   0  0  0  0  0  0  0  0  0  0  0  0
    2.5836    2.5016    0.0000 C   0  0  0  0  0  0  0  0  0  0  0  0
    2.0000    3.3064    0.0000 C   0  0  0  0  0  0  0  0  0  0  0  0
    3.5335   -3.7499    0.0000 C   0  0  0  0  0  0  0  0  0  0  0  0
    3.7446    1.1796    0.0000 H   0  0  0  0  0  0  0  0  0  0  0  0
    2.3520    0.9243    0.0000 H   0  0  0  0  0  0  0  0  0  0  0  0
    1.9083    0.5401    0.0000 H   0  0  0  0  0  0  0  0  0  0  0  0
    1.7439   -0.2398    0.0000 H   0  0  0  0  0  0  0  0  0  0  0  0
    4.6304   -0.8482    0.0000 H   0  0  0  0  0  0  0  0  0  0  0  0
    4.7948   -0.0682    0.0000 H   0  0  0  0  0  0  0  0  0  0  0  0
    1.9877   -0.9857    0.0000 H   0  0  0  0  0  0  0  0  0  0  0  0
    2.5810   -1.5180    0.0000 H   0  0  0  0  0  0  0  0  0  0  0  0
    3.2374    1.9396    0.0000 H   0  0  0  0  0  0  0  0  0  0  0  0
    2.4554    2.3363    0.0000 H   0  0  0  0  0  0  0  0  0  0  0  0
    2.0587    1.5544    0.0000 H   0  0  0  0  0  0  0  0  0  0  0  0
    6.6056    2.2672    0.0000 H   0  0  0  0  0  0  0  0  0  0  0  0
    2.8403   -2.3115    0.0000 H   0  0  0  0  0  0  0  0  0  0  0  0
    2.6759   -3.0914    0.0000 H   0  0  0  0  0  0  0  0  0  0  0  0
    5.7988    4.1164    0.0000 H   0  0  0  0  0  0  0  0  0  0  0  0
    2.3910    1.9123    0.0000 H   0  0  0  0  0  0  0  0  0  0  0  0
    2.3910    4.7004    0.0000 H   0  0  0  0  0  0  0  0  0  0  0  0
    1.3800    3.3064    0.0000 H   0  0  0  0  0  0  0  0  0  0  0  0
  1 15  2  0  0  0  0
  2 11  1  0  0  0  0
  2 12  1  0  0  0  0
  2 15  1  0  0  0  0
  3 13  1  0  0  0  0
  3 16  1  0  0  0  0
  3 17  1  0  0  0  0
  4 13  2  0  0  0  0
  4 18  1  0  0  0  0
  5 19  1  0  0  0  0
  5 21  2  0  0  0  0
  6 19  1  0  0  0  0
  6 23  1  0  0  0  0
  6 41  1  0  0  0  0
  7 24  3  0  0  0  0
  8  9  1  0  0  0  0
  8 11  1  0  0  0  0
  8 13  1  0  0  0  0
  8 25  1  0  0  0  0
  9 10  1  0  0  0  0
  9 14  1  0  0  0  0
  9 26  1  0  0  0  0
 10 12  1  0  0  0  0
 10 27  1  0  0  0  0
 10 28  1  0  0  0  0
 11 29  1  0  0  0  0
 11 30  1  0  0  0  0
 12 31  1  0  0  0  0
 12 32  1  0  0  0  0
 14 33  1  0  0  0  0
 14 34  1  0  0  0  0
 14 35  1  0  0  0  0
 15 20  1  0  0  0  0
 16 18  2  0  0  0  0
 16 21  1  0  0  0  0
 17 19  2  0  0  0  0
 17 22  1  0  0  0  0
 18 36  1  0  0  0  0
 20 24  1  0  0  0  0
 20 37  1  0  0  0  0
 20 38  1  0  0  0  0
 21 39  1  0  0  0  0
 22 23  2  0  0  0  0
 22 40  1  0  0  0  0
 23 42  1  0  0  0  0
M  END
> <PUBCHEM_COMPOUND_CID>
49830716

> <PUBCHEM_COMPOUND_CANONICALIZED>
1

> <PUBCHEM_CACTVS_COMPLEXITY>
544

> <PUBCHEM_CACTVS_HBOND_ACCEPTOR>
4

> <PUBCHEM_CACTVS_HBOND_DONOR>
1

> <PUBCHEM_CACTVS_ROTATABLE_BOND>
2

> <PUBCHEM_CACTVS_SUBSKEYS>
AAADceB7oAAAAAAAAAAAAAAAAAAAAWLAAAAsWAAAAAAAAFgB+AAAHgAQAAAADQjBlwQ/8L/NmAC4BTd3dACCgC2xEqAJ2aE4dJiI6MJAycEUBAhIFgLAQCAQAAAOgAAAAAAAAAAAAAAAAAAAAAAAAAAAAA==

> <PUBCHEM_IUPAC_OPENEYE_NAME>
3-[4-methyl-3-(1,5,7,11-tetrazatricyclo[7.3.0.02,6]dodeca-2(6),3,7,9,11-pentaen-12-yl)-1-piperidyl]-3-oxo-propanenitrile

> <PUBCHEM_IUPAC_CAS_NAME>
3-[4-methyl-3-(1,5,7,11-tetrazatricyclo[7.3.0.02,6]dodeca-2(6),3,7,9,11-pentaen-12-yl)-1-piperidinyl]-3-oxopropanenitrile

> <PUBCHEM_IUPAC_NAME_MARKUP>
3-[4-methyl-3-(1,5,7,11-tetrazatricyclo[7.3.0.0<SUP>2,6</SUP>]dodeca-2(6),3,7,9,11-pentaen-12-yl)piperidin-1-yl]-3-oxopropanenitrile

> <PUBCHEM_IUPAC_NAME>
3-[4-methyl-3-(1,5,7,11-tetrazatricyclo[7.3.0.02,6]dodeca-2(6),3,7,9,11-pentaen-12-yl)piperidin-1-yl]-3-oxopropanenitrile

> <PUBCHEM_IUPAC_SYSTEMATIC_NAME>
3-[4-methyl-3-(1,5,7,11-tetrazatricyclo[7.3.0.02,6]dodeca-2(6),3,7,9,11-pentaen-12-yl)piperidin-1-yl]-3-oxidanylidene-propanenitrile

> <PUBCHEM_IUPAC_TRADITIONAL_NAME>
3-keto-3-[4-methyl-3-(1,5,7,11-tetrazatricyclo[7.3.0.02,6]dodeca-2(6),3,7,9,11-pentaen-12-yl)piperidino]propionitrile

> <PUBCHEM_IUPAC_INCHI>
InChI=1S/C17H18N6O/c1-11-4-7-22(15(24)2-5-18)10-13(11)17-21-9-12-8-20-16-14(23(12)17)3-6-19-16/h3,6,8-9,11,13,19H,2,4,7,10H2,1H3

> <PUBCHEM_IUPAC_INCHIKEY>
FHIVNWJIENRJBH-UHFFFAOYSA-N

> <PUBCHEM_XLOGP3_AA>
1.7

> <PUBCHEM_EXACT_MASS>
322.15420922

> <PUBCHEM_MOLECULAR_FORMULA>
C17H18N6O

> <PUBCHEM_MOLECULAR_WEIGHT>
322.4

> <PUBCHEM_SMILES>
CC1CCN(CC1C2=NC=C3N2C4=C(NC=C4)N=C3)C(=O)CC#N

> <PUBCHEM_OPENEYE_CAN_SMILES>
CC1CCN(CC1C2=NC=C3N2C4=C(NC=C4)N=C3)C(=O)CC#N

> <PUBCHEM_OPENEYE_ISO_SMILES>
CC1CCN(CC1C2=NC=C3N2C4=C(NC=C4)N=C3)C(=O)CC#N

> <PUBCHEM_CACTVS_TPSA>
90.1

> <PUBCHEM_MONOISOTOPIC_WEIGHT>
322.15420922

> <PUBCHEM_TOTAL_CHARGE>
0

> <PUBCHEM_HEAVY_ATOM_COUNT>
24

> <PUBCHEM_ATOM_DEF_STEREO_COUNT>
0

> <PUBCHEM_ATOM_UDEF_STEREO_COUNT>
2

> <PUBCHEM_BOND_DEF_STEREO_COUNT>
0

> <PUBCHEM_BOND_UDEF_STEREO_COUNT>
0

> <PUBCHEM_ISOTOPIC_ATOM_COUNT>
0

> <PUBCHEM_COMPONENT_COUNT>
1

> <PUBCHEM_CACTVS_TAUTO_COUNT>
-1

> <PUBCHEM_COORDINATE_TYPE>
1
5
255

> <PUBCHEM_BONDANNOTATIONS>
16  18  8
16  21  8
17  19  8
17  22  8
22  23  8
3  13  8
3  16  8
3  17  8
4  13  8
4  18  8
5  19  8
5  21  8
6  19  8
6  23  8
8  13  3
9  14  3

$$$$
