71552696
  -OEChem-03202504542D

 75 78  0     0  0  0  0  0  0999 V2000
    2.4612    3.5337    0.0000 O   0  0  0  0  0  0  0  0  0  0  0  0
    7.9128    3.6488    0.0000 O   0  0  0  0  0  0  0  0  0  0  0  0
   13.9750   -3.8512    0.0000 O   0  0  0  0  0  0  0  0  0  0  0  0
   12.2429   -4.8512    0.0000 O   0  0  0  0  0  0  0  0  0  0  0  0
    9.6448    3.6488    0.0000 N   0  0  0  0  0  0  0  0  0  0  0  0
    3.5827    2.1488    0.0000 N   0  0  0  0  0  0  0  0  0  0  0  0
   10.5109    2.1488    0.0000 N   0  0  0  0  0  0  0  0  0  0  0  0
    7.0468    2.1488    0.0000 N   0  0  0  0  0  0  0  0  0  0  0  0
    9.6448    0.6488    0.0000 N   0  0  0  0  0  0  0  0  0  0  0  0
   11.3769    0.6488    0.0000 N   0  0  0  0  0  0  0  0  0  0  0  0
   10.5109    4.1488    0.0000 C   0  0  0  0  0  0  0  0  0  0  0  0
   11.4244    3.7420    0.0000 C   0  0  0  0  0  0  0  0  0  0  0  0
   10.6154    5.1433    0.0000 C   0  0  0  0  0  0  0  0  0  0  0  0
   12.0936    4.4852    0.0000 C   0  0  0  0  0  0  0  0  0  0  0  0
   11.5936    5.3512    0.0000 C   0  0  0  0  0  0  0  0  0  0  0  0
    9.6448    2.6488    0.0000 C   0  0  0  0  0  0  0  0  0  0  0  0
    3.4782    1.1543    0.0000 C   0  0  0  0  0  0  0  0  0  0  0  0
    2.5000    0.9464    0.0000 C   0  0  0  0  0  0  0  0  0  0  0  0
    4.4487    2.6488    0.0000 C   0  0  0  0  0  0  0  0  0  0  0  0
    2.0000    1.8124    0.0000 C   0  0  0  0  0  0  0  0  0  0  0  0
    8.7788    2.1488    0.0000 C   0  0  0  0  0  0  0  0  0  0  0  0
    2.6691    2.5555    0.0000 C   0  0  0  0  0  0  0  0  0  0  0  0
    5.3147    2.1488    0.0000 C   0  0  0  0  0  0  0  0  0  0  0  0
    6.1808    2.6488    0.0000 C   0  0  0  0  0  0  0  0  0  0  0  0
    7.9128    2.6488    0.0000 C   0  0  0  0  0  0  0  0  0  0  0  0
    8.7788    1.1488    0.0000 C   0  0  0  0  0  0  0  0  0  0  0  0
   10.5109    1.1488    0.0000 C   0  0  0  0  0  0  0  0  0  0  0  0
   11.3769   -0.3512    0.0000 C   0  0  0  0  0  0  0  0  0  0  0  0
   12.2429   -0.8512    0.0000 C   0  0  0  0  0  0  0  0  0  0  0  0
   12.2429   -1.8512    0.0000 C   0  0  0  0  0  0  0  0  0  0  0  0
   13.1090   -2.3512    0.0000 C   0  0  0  0  0  0  0  0  0  0  0  0
   11.3769   -2.3512    0.0000 C   0  0  0  0  0  0  0  0  0  0  0  0
   13.1090   -3.3512    0.0000 C   0  0  0  0  0  0  0  0  0  0  0  0
   11.3769   -3.3512    0.0000 C   0  0  0  0  0  0  0  0  0  0  0  0
   12.2429   -3.8512    0.0000 C   0  0  0  0  0  0  0  0  0  0  0  0
   14.8410   -3.3512    0.0000 C   0  0  0  0  0  0  0  0  0  0  0  0
   11.3769   -5.3512    0.0000 C   0  0  0  0  0  0  0  0  0  0  0  0
   10.5433    3.5296    0.0000 H   0  0  0  0  0  0  0  0  0  0  0  0
   11.1144    3.2051    0.0000 H   0  0  0  0  0  0  0  0  0  0  0  0
   11.9260    3.3776    0.0000 H   0  0  0  0  0  0  0  0  0  0  0  0
   10.5506    5.7599    0.0000 H   0  0  0  0  0  0  0  0  0  0  0  0
    9.9954    5.1433    0.0000 H   0  0  0  0  0  0  0  0  0  0  0  0
   12.5084    4.0244    0.0000 H   0  0  0  0  0  0  0  0  0  0  0  0
   12.5951    4.8496    0.0000 H   0  0  0  0  0  0  0  0  0  0  0  0
   12.1600    5.6034    0.0000 H   0  0  0  0  0  0  0  0  0  0  0  0
   11.4020    5.9409    0.0000 H   0  0  0  0  0  0  0  0  0  0  0  0
    9.1079    3.9588    0.0000 H   0  0  0  0  0  0  0  0  0  0  0  0
    3.5430    0.5377    0.0000 H   0  0  0  0  0  0  0  0  0  0  0  0
    4.0982    1.1543    0.0000 H   0  0  0  0  0  0  0  0  0  0  0  0
    1.9336    0.6942    0.0000 H   0  0  0  0  0  0  0  0  0  0  0  0
    2.6916    0.3567    0.0000 H   0  0  0  0  0  0  0  0  0  0  0  0
    4.8472    3.1237    0.0000 H   0  0  0  0  0  0  0  0  0  0  0  0
    4.0502    3.1237    0.0000 H   0  0  0  0  0  0  0  0  0  0  0  0
    1.5851    2.2731    0.0000 H   0  0  0  0  0  0  0  0  0  0  0  0
    1.4984    1.4480    0.0000 H   0  0  0  0  0  0  0  0  0  0  0  0
    4.9162    1.6738    0.0000 H   0  0  0  0  0  0  0  0  0  0  0  0
    5.7133    1.6738    0.0000 H   0  0  0  0  0  0  0  0  0  0  0  0
    6.5793    3.1237    0.0000 H   0  0  0  0  0  0  0  0  0  0  0  0
    5.7822    3.1237    0.0000 H   0  0  0  0  0  0  0  0  0  0  0  0
    7.0468    1.5288    0.0000 H   0  0  0  0  0  0  0  0  0  0  0  0
    8.2419    0.8388    0.0000 H   0  0  0  0  0  0  0  0  0  0  0  0
   11.9138    0.9588    0.0000 H   0  0  0  0  0  0  0  0  0  0  0  0
   10.7663   -0.2436    0.0000 H   0  0  0  0  0  0  0  0  0  0  0  0
   11.1649   -0.9338    0.0000 H   0  0  0  0  0  0  0  0  0  0  0  0
   12.8535   -0.9589    0.0000 H   0  0  0  0  0  0  0  0  0  0  0  0
   12.4550   -0.2686    0.0000 H   0  0  0  0  0  0  0  0  0  0  0  0
   13.6459   -2.0412    0.0000 H   0  0  0  0  0  0  0  0  0  0  0  0
   10.8400   -2.0412    0.0000 H   0  0  0  0  0  0  0  0  0  0  0  0
   10.8400   -3.6612    0.0000 H   0  0  0  0  0  0  0  0  0  0  0  0
   15.1510   -3.8882    0.0000 H   0  0  0  0  0  0  0  0  0  0  0  0
   15.3779   -3.0412    0.0000 H   0  0  0  0  0  0  0  0  0  0  0  0
   14.5310   -2.8143    0.0000 H   0  0  0  0  0  0  0  0  0  0  0  0
   11.0669   -4.8143    0.0000 H   0  0  0  0  0  0  0  0  0  0  0  0
   10.8400   -5.6612    0.0000 H   0  0  0  0  0  0  0  0  0  0  0  0
   11.6869   -5.8882    0.0000 H   0  0  0  0  0  0  0  0  0  0  0  0
  1 22  2  0  0  0  0
  2 25  2  0  0  0  0
  3 33  1  0  0  0  0
  3 36  1  0  0  0  0
  4 35  1  0  0  0  0
  4 37  1  0  0  0  0
  5 11  1  0  0  0  0
  5 16  1  0  0  0  0
  5 47  1  0  0  0  0
  6 17  1  0  0  0  0
  6 19  1  0  0  0  0
  6 22  1  0  0  0  0
  7 16  2  0  0  0  0
  7 27  1  0  0  0  0
  8 24  1  0  0  0  0
  8 25  1  0  0  0  0
  8 60  1  0  0  0  0
  9 26  1  0  0  0  0
  9 27  2  0  0  0  0
 10 27  1  0  0  0  0
 10 28  1  0  0  0  0
 10 62  1  0  0  0  0
 11 12  1  0  0  0  0
 11 13  1  0  0  0  0
 11 38  1  0  0  0  0
 12 14  1  0  0  0  0
 12 39  1  0  0  0  0
 12 40  1  0  0  0  0
 13 15  1  0  0  0  0
 13 41  1  0  0  0  0
 13 42  1  0  0  0  0
 14 15  1  0  0  0  0
 14 43  1  0  0  0  0
 14 44  1  0  0  0  0
 15 45  1  0  0  0  0
 15 46  1  0  0  0  0
 16 21  1  0  0  0  0
 17 18  1  0  0  0  0
 17 48  1  0  0  0  0
 17 49  1  0  0  0  0
 18 20  1  0  0  0  0
 18 50  1  0  0  0  0
 18 51  1  0  0  0  0
 19 23  1  0  0  0  0
 19 52  1  0  0  0  0
 19 53  1  0  0  0  0
 20 22  1  0  0  0  0
 20 54  1  0  0  0  0
 20 55  1  0  0  0  0
 21 25  1  0  0  0  0
 21 26  2  0  0  0  0
 23 24  1  0  0  0  0
 23 56  1  0  0  0  0
 23 57  1  0  0  0  0
 24 58  1  0  0  0  0
 24 59  1  0  0  0  0
 26 61  1  0  0  0  0
 28 29  1  0  0  0  0
 28 63  1  0  0  0  0
 28 64  1  0  0  0  0
 29 30  1  0  0  0  0
 29 65  1  0  0  0  0
 29 66  1  0  0  0  0
 30 31  2  0  0  0  0
 30 32  1  0  0  0  0
 31 33  1  0  0  0  0
 31 67  1  0  0  0  0
 32 34  2  0  0  0  0
 32 68  1  0  0  0  0
 33 35  2  0  0  0  0
 34 35  1  0  0  0  0
 34 69  1  0  0  0  0
 36 70  1  0  0  0  0
 36 71  1  0  0  0  0
 36 72  1  0  0  0  0
 37 73  1  0  0  0  0
 37 74  1  0  0  0  0
 37 75  1  0  0  0  0
M  END
> <PUBCHEM_COMPOUND_CID>
71552696

> <PUBCHEM_COMPOUND_CANONICALIZED>
1

> <PUBCHEM_CACTVS_COMPLEXITY>
721

> <PUBCHEM_CACTVS_HBOND_ACCEPTOR>
8

> <PUBCHEM_CACTVS_HBOND_DONOR>
3

> <PUBCHEM_CACTVS_ROTATABLE_BOND>
13

> <PUBCHEM_CACTVS_SUBSKEYS>
AAADcfB7uAAAAAAAAAAAAAAAAAAAAeIAAAA8QAAAAAAAAAABwAAAHgAQAAAADCzBmgY/tpfIFACoAjN3dACCiCk1IKAJ2KEuzNiNLrrE+VuENKos1hPKqOeU0LIOIAABAAAAQABAAAIAAACAAAAAAAAAAA==

> <PUBCHEM_IUPAC_OPENEYE_NAME>
4-(cyclopentylamino)-2-[2-(3,4-dimethoxyphenyl)ethylamino]-N-[3-(2-oxopyrrolidin-1-yl)propyl]pyrimidine-5-carboxamide

> <PUBCHEM_IUPAC_CAS_NAME>
4-(cyclopentylamino)-2-[2-(3,4-dimethoxyphenyl)ethylamino]-N-[3-(2-oxo-1-pyrrolidinyl)propyl]-5-pyrimidinecarboxamide

> <PUBCHEM_IUPAC_NAME_MARKUP>
4-(cyclopentylamino)-2-[2-(3,4-dimethoxyphenyl)ethylamino]-<I>N</I>-[3-(2-oxopyrrolidin-1-yl)propyl]pyrimidine-5-carboxamide

> <PUBCHEM_IUPAC_NAME>
4-(cyclopentylamino)-2-[2-(3,4-dimethoxyphenyl)ethylamino]-N-[3-(2-oxopyrrolidin-1-yl)propyl]pyrimidine-5-carboxamide

> <PUBCHEM_IUPAC_SYSTEMATIC_NAME>
4-(cyclopentylamino)-2-[2-(3,4-dimethoxyphenyl)ethylamino]-N-[3-(2-oxidanylidenepyrrolidin-1-yl)propyl]pyrimidine-5-carboxamide

> <PUBCHEM_IUPAC_TRADITIONAL_NAME>
4-(cyclopentylamino)-2-(homoveratrylamino)-N-[3-(2-ketopyrrolidino)propyl]pyrimidine-5-carboxamide

> <PUBCHEM_IUPAC_INCHI>
InChI=1S/C27H38N6O4/c1-36-22-11-10-19(17-23(22)37-2)12-14-29-27-30-18-21(25(32-27)31-20-7-3-4-8-20)26(35)28-13-6-16-33-15-5-9-24(33)34/h10-11,17-18,20H,3-9,12-16H2,1-2H3,(H,28,35)(H2,29,30,31,32)

> <PUBCHEM_IUPAC_INCHIKEY>
BQICBFKSXAVIBF-UHFFFAOYSA-N

> <PUBCHEM_XLOGP3_AA>
3.8

> <PUBCHEM_EXACT_MASS>
510.29545371

> <PUBCHEM_MOLECULAR_FORMULA>
C27H38N6O4

> <PUBCHEM_MOLECULAR_WEIGHT>
510.6

> <PUBCHEM_SMILES>
COC1=C(C=C(C=C1)CCNC2=NC=C(C(=N2)NC3CCCC3)C(=O)NCCCN4CCCC4=O)OC

> <PUBCHEM_OPENEYE_CAN_SMILES>
COC1=C(C=C(C=C1)CCNC2=NC=C(C(=N2)NC3CCCC3)C(=O)NCCCN4CCCC4=O)OC

> <PUBCHEM_OPENEYE_ISO_SMILES>
COC1=C(C=C(C=C1)CCNC2=NC=C(C(=N2)NC3CCCC3)C(=O)NCCCN4CCCC4=O)OC

> <PUBCHEM_CACTVS_TPSA>
118

> <PUBCHEM_MONOISOTOPIC_WEIGHT>
510.29545371

> <PUBCHEM_TOTAL_CHARGE>
0

> <PUBCHEM_HEAVY_ATOM_COUNT>
37

> <PUBCHEM_ATOM_DEF_STEREO_COUNT>
0

> <PUBCHEM_ATOM_UDEF_STEREO_COUNT>
0

> <PUBCHEM_BOND_DEF_STEREO_COUNT>
0

> <PUBCHEM_BOND_UDEF_STEREO_COUNT>
0

> <PUBCHEM_ISOTOPIC_ATOM_COUNT>
0

> <PUBCHEM_COMPONENT_COUNT>
1

> <PUBCHEM_CACTVS_TAUTO_COUNT>
-1

> <PUBCHEM_COORDINATE_TYPE>
1
5
255

> <PUBCHEM_BONDANNOTATIONS>
16  21  8
21  26  8
30  31  8
30  32  8
31  33  8
32  34  8
33  35  8
34  35  8
7  16  8
7  27  8
9  26  8
9  27  8

$$$$
