49830767
  -OEChem-03202503392D

 40 43  0     0  0  0  0  0  0999 V2000
    2.0000    2.9470    0.0000 O   0  0  0  0  0  0  0  0  0  0  0  0
    5.4641    1.9470    0.0000 O   0  0  0  0  0  0  0  0  0  0  0  0
    3.7320    1.9470    0.0000 N   0  0  0  0  0  0  0  0  0  0  0  0
    9.0084   -2.8577    0.0000 N   0  0  0  0  0  0  0  0  0  0  0  0
    7.1962   -3.0530    0.0000 N   0  0  0  0  0  0  0  0  0  0  0  0
    2.8660    1.4470    0.0000 C   0  0  0  0  0  0  0  0  0  0  0  0
    3.7320    2.9470    0.0000 C   0  0  0  0  0  0  0  0  0  0  0  0
    2.0000    1.9470    0.0000 C   0  0  0  0  0  0  0  0  0  0  0  0
    2.8660    3.4470    0.0000 C   0  0  0  0  0  0  0  0  0  0  0  0
    4.5981    1.4470    0.0000 C   0  0  0  0  0  0  0  0  0  0  0  0
    4.5981    0.4470    0.0000 C   0  0  0  0  0  0  0  0  0  0  0  0
    5.4641   -1.0530    0.0000 C   0  0  0  0  0  0  0  0  0  0  0  0
    5.4641   -0.0530    0.0000 C   0  0  0  0  0  0  0  0  0  0  0  0
    6.3301   -1.5530    0.0000 C   0  0  0  0  0  0  0  0  0  0  0  0
    3.7320   -0.0530    0.0000 C   0  0  0  0  0  0  0  0  0  0  0  0
    8.0622   -1.5530    0.0000 C   0  0  0  0  0  0  0  0  0  0  0  0
    7.1962   -1.0530    0.0000 C   0  0  0  0  0  0  0  0  0  0  0  0
    4.5981   -1.5530    0.0000 C   0  0  0  0  0  0  0  0  0  0  0  0
    8.0622   -2.5530    0.0000 C   0  0  0  0  0  0  0  0  0  0  0  0
    3.7320   -1.0530    0.0000 C   0  0  0  0  0  0  0  0  0  0  0  0
    6.3301   -2.5530    0.0000 C   0  0  0  0  0  0  0  0  0  0  0  0
    9.0084   -1.2482    0.0000 C   0  0  0  0  0  0  0  0  0  0  0  0
    9.5920   -2.0530    0.0000 C   0  0  0  0  0  0  0  0  0  0  0  0
    2.4675    0.9721    0.0000 H   0  0  0  0  0  0  0  0  0  0  0  0
    3.2646    0.9721    0.0000 H   0  0  0  0  0  0  0  0  0  0  0  0
    4.3426    2.8394    0.0000 H   0  0  0  0  0  0  0  0  0  0  0  0
    3.9441    3.5296    0.0000 H   0  0  0  0  0  0  0  0  0  0  0  0
    1.3894    2.0547    0.0000 H   0  0  0  0  0  0  0  0  0  0  0  0
    1.7880    1.3644    0.0000 H   0  0  0  0  0  0  0  0  0  0  0  0
    3.2646    3.9220    0.0000 H   0  0  0  0  0  0  0  0  0  0  0  0
    2.4675    3.9220    0.0000 H   0  0  0  0  0  0  0  0  0  0  0  0
    6.0010    0.2570    0.0000 H   0  0  0  0  0  0  0  0  0  0  0  0
    3.1951    0.2570    0.0000 H   0  0  0  0  0  0  0  0  0  0  0  0
    7.1962   -0.4330    0.0000 H   0  0  0  0  0  0  0  0  0  0  0  0
    4.5981   -2.1730    0.0000 H   0  0  0  0  0  0  0  0  0  0  0  0
    3.1951   -1.3630    0.0000 H   0  0  0  0  0  0  0  0  0  0  0  0
    5.7932   -2.8630    0.0000 H   0  0  0  0  0  0  0  0  0  0  0  0
    9.2010   -0.6589    0.0000 H   0  0  0  0  0  0  0  0  0  0  0  0
    9.2010   -3.4470    0.0000 H   0  0  0  0  0  0  0  0  0  0  0  0
   10.2120   -2.0530    0.0000 H   0  0  0  0  0  0  0  0  0  0  0  0
  1  8  1  0  0  0  0
  1  9  1  0  0  0  0
  2 10  2  0  0  0  0
  3  6  1  0  0  0  0
  3  7  1  0  0  0  0
  3 10  1  0  0  0  0
  4 19  1  0  0  0  0
  4 23  1  0  0  0  0
  4 39  1  0  0  0  0
  5 19  2  0  0  0  0
  5 21  1  0  0  0  0
  6  8  1  0  0  0  0
  6 24  1  0  0  0  0
  6 25  1  0  0  0  0
  7  9  1  0  0  0  0
  7 26  1  0  0  0  0
  7 27  1  0  0  0  0
  8 28  1  0  0  0  0
  8 29  1  0  0  0  0
  9 30  1  0  0  0  0
  9 31  1  0  0  0  0
 10 11  1  0  0  0  0
 11 13  1  0  0  0  0
 11 15  2  0  0  0  0
 12 13  2  0  0  0  0
 12 14  1  0  0  0  0
 12 18  1  0  0  0  0
 13 32  1  0  0  0  0
 14 17  1  0  0  0  0
 14 21  2  0  0  0  0
 15 20  1  0  0  0  0
 15 33  1  0  0  0  0
 16 17  2  0  0  0  0
 16 19  1  0  0  0  0
 16 22  1  0  0  0  0
 17 34  1  0  0  0  0
 18 20  2  0  0  0  0
 18 35  1  0  0  0  0
 20 36  1  0  0  0  0
 21 37  1  0  0  0  0
 22 23  2  0  0  0  0
 22 38  1  0  0  0  0
 23 40  1  0  0  0  0
M  END
> <PUBCHEM_COMPOUND_CID>
49830767

> <PUBCHEM_COMPOUND_CANONICALIZED>
1

> <PUBCHEM_CACTVS_COMPLEXITY>
424

> <PUBCHEM_CACTVS_HBOND_ACCEPTOR>
3

> <PUBCHEM_CACTVS_HBOND_DONOR>
1

> <PUBCHEM_CACTVS_ROTATABLE_BOND>
2

> <PUBCHEM_CACTVS_SUBSKEYS>
AAADceB7MAAAAAAAAAAAAAAAAAAAAWAAAAA8WIAAAAAAAFgB/AAAHgAQAAAADADhmwY9sN/JlACoAjN3dACCgCm1AqAJ2aE4ZNiKKPLAnZGHIQholgLYyacYiMCOgAACAAAAAAAAAAQAAAAAAAAAAAAAAA==

> <PUBCHEM_IUPAC_OPENEYE_NAME>
morpholino-[3-(1H-pyrrolo[2,3-b]pyridin-5-yl)phenyl]methanone

> <PUBCHEM_IUPAC_CAS_NAME>
4-morpholinyl-[3-(1H-pyrrolo[2,3-b]pyridin-5-yl)phenyl]methanone

> <PUBCHEM_IUPAC_NAME_MARKUP>
morpholin-4-yl-[3-(1<I>H</I>-pyrrolo[2,3-b]pyridin-5-yl)phenyl]methanone

> <PUBCHEM_IUPAC_NAME>
morpholin-4-yl-[3-(1H-pyrrolo[2,3-b]pyridin-5-yl)phenyl]methanone

> <PUBCHEM_IUPAC_SYSTEMATIC_NAME>
morpholin-4-yl-[3-(1H-pyrrolo[2,3-b]pyridin-5-yl)phenyl]methanone

> <PUBCHEM_IUPAC_TRADITIONAL_NAME>
morpholino-[3-(1H-pyrrolo[2,3-b]pyridin-5-yl)phenyl]methanone

> <PUBCHEM_IUPAC_INCHI>
InChI=1S/C18H17N3O2/c22-18(21-6-8-23-9-7-21)15-3-1-2-13(10-15)16-11-14-4-5-19-17(14)20-12-16/h1-5,10-12H,6-9H2,(H,19,20)

> <PUBCHEM_IUPAC_INCHIKEY>
AQZIXHSRFOGYHF-UHFFFAOYSA-N

> <PUBCHEM_XLOGP3_AA>
2

> <PUBCHEM_EXACT_MASS>
307.132076794

> <PUBCHEM_MOLECULAR_FORMULA>
C18H17N3O2

> <PUBCHEM_MOLECULAR_WEIGHT>
307.3

> <PUBCHEM_SMILES>
C1COCCN1C(=O)C2=CC=CC(=C2)C3=CN=C4C(=C3)C=CN4

> <PUBCHEM_OPENEYE_CAN_SMILES>
C1COCCN1C(=O)C2=CC=CC(=C2)C3=CN=C4C(=C3)C=CN4

> <PUBCHEM_OPENEYE_ISO_SMILES>
C1COCCN1C(=O)C2=CC=CC(=C2)C3=CN=C4C(=C3)C=CN4

> <PUBCHEM_CACTVS_TPSA>
58.2

> <PUBCHEM_MONOISOTOPIC_WEIGHT>
307.132076794

> <PUBCHEM_TOTAL_CHARGE>
0

> <PUBCHEM_HEAVY_ATOM_COUNT>
23

> <PUBCHEM_ATOM_DEF_STEREO_COUNT>
0

> <PUBCHEM_ATOM_UDEF_STEREO_COUNT>
0

> <PUBCHEM_BOND_DEF_STEREO_COUNT>
0

> <PUBCHEM_BOND_UDEF_STEREO_COUNT>
0

> <PUBCHEM_ISOTOPIC_ATOM_COUNT>
0

> <PUBCHEM_COMPONENT_COUNT>
1

> <PUBCHEM_CACTVS_TAUTO_COUNT>
-1

> <PUBCHEM_COORDINATE_TYPE>
1
5
255

> <PUBCHEM_BONDANNOTATIONS>
11  13  8
11  15  8
12  13  8
12  18  8
14  17  8
14  21  8
15  20  8
16  17  8
16  19  8
16  22  8
18  20  8
22  23  8
4  19  8
4  23  8
5  19  8
5  21  8

$$$$
