11626927
  -OEChem-03202505512D

 51 54  0     0  0  0  0  0  0999 V2000
    9.1916    3.1586    0.0000 S   0  0  0  0  0  0  0  0  0  0  0  0
    6.1346    0.4938    0.0000 S   0  0  0  0  0  0  0  0  0  0  0  0
    8.4843    1.5775    0.0000 O   0  0  0  0  0  0  0  0  0  0  0  0
    2.8660   -1.0715    0.0000 O   0  0  0  0  0  0  0  0  0  0  0  0
    2.8660   -3.0715    0.0000 O   0  0  0  0  0  0  0  0  0  0  0  0
    9.5999    4.0715    0.0000 O   0  0  0  0  0  0  0  0  0  0  0  0
    8.7832    2.2458    0.0000 O   0  0  0  0  0  0  0  0  0  0  0  0
    6.4103   -1.2667    0.0000 N   0  0  0  0  0  0  0  0  0  0  0  0
    6.4103   -2.8762    0.0000 N   0  0  0  0  0  0  0  0  0  0  0  0
    6.1090    3.2050    0.0000 N   0  0  0  0  0  0  0  0  0  0  0  0
    5.4641   -1.5715    0.0000 C   0  0  0  0  0  0  0  0  0  0  0  0
    5.4641   -2.5715    0.0000 C   0  0  0  0  0  0  0  0  0  0  0  0
    6.7210   -0.3162    0.0000 C   0  0  0  0  0  0  0  0  0  0  0  0
   10.2072    1.7556    0.0000 C   0  0  0  0  0  0  0  0  0  0  0  0
   10.1044    2.7503    0.0000 C   0  0  0  0  0  0  0  0  0  0  0  0
    9.3972    1.1692    0.0000 C   0  0  0  0  0  0  0  0  0  0  0  0
    4.5981   -1.0715    0.0000 C   0  0  0  0  0  0  0  0  0  0  0  0
    6.9939   -2.0715    0.0000 C   0  0  0  0  0  0  0  0  0  0  0  0
    7.6743    0.9912    0.0000 C   0  0  0  0  0  0  0  0  0  0  0  0
    7.6726   -0.0088    0.0000 C   0  0  0  0  0  0  0  0  0  0  0  0
    4.5981   -3.0715    0.0000 C   0  0  0  0  0  0  0  0  0  0  0  0
    3.7320   -1.5715    0.0000 C   0  0  0  0  0  0  0  0  0  0  0  0
    3.7320   -2.5715    0.0000 C   0  0  0  0  0  0  0  0  0  0  0  0
   11.1201    1.3473    0.0000 C   0  0  0  0  0  0  0  0  0  0  0  0
   10.9144    3.3367    0.0000 C   0  0  0  0  0  0  0  0  0  0  0  0
    6.7238    1.3018    0.0000 C   0  0  0  0  0  0  0  0  0  0  0  0
    8.2787    3.5669    0.0000 C   0  0  0  0  0  0  0  0  0  0  0  0
   11.9301    1.9337    0.0000 C   0  0  0  0  0  0  0  0  0  0  0  0
   11.8273    2.9284    0.0000 C   0  0  0  0  0  0  0  0  0  0  0  0
    6.4164    2.2534    0.0000 C   0  0  0  0  0  0  0  0  0  0  0  0
    2.0000   -1.5715    0.0000 C   0  0  0  0  0  0  0  0  0  0  0  0
    2.8660   -4.0715    0.0000 C   0  0  0  0  0  0  0  0  0  0  0  0
    9.0496    0.6558    0.0000 H   0  0  0  0  0  0  0  0  0  0  0  0
    9.8424    0.7378    0.0000 H   0  0  0  0  0  0  0  0  0  0  0  0
    4.5981   -0.4515    0.0000 H   0  0  0  0  0  0  0  0  0  0  0  0
    7.6139   -2.0715    0.0000 H   0  0  0  0  0  0  0  0  0  0  0  0
    8.1735   -0.3741    0.0000 H   0  0  0  0  0  0  0  0  0  0  0  0
    4.5981   -3.6915    0.0000 H   0  0  0  0  0  0  0  0  0  0  0  0
   11.1838    0.7306    0.0000 H   0  0  0  0  0  0  0  0  0  0  0  0
   10.8507    3.9534    0.0000 H   0  0  0  0  0  0  0  0  0  0  0  0
    8.5319    4.1329    0.0000 H   0  0  0  0  0  0  0  0  0  0  0  0
    7.7128    3.8201    0.0000 H   0  0  0  0  0  0  0  0  0  0  0  0
    8.0256    3.0010    0.0000 H   0  0  0  0  0  0  0  0  0  0  0  0
   12.4960    1.6805    0.0000 H   0  0  0  0  0  0  0  0  0  0  0  0
   12.3295    3.2919    0.0000 H   0  0  0  0  0  0  0  0  0  0  0  0
    1.6900   -1.0345    0.0000 H   0  0  0  0  0  0  0  0  0  0  0  0
    1.4631   -1.8815    0.0000 H   0  0  0  0  0  0  0  0  0  0  0  0
    2.3100   -2.1084    0.0000 H   0  0  0  0  0  0  0  0  0  0  0  0
    2.2460   -4.0715    0.0000 H   0  0  0  0  0  0  0  0  0  0  0  0
    2.8660   -4.6915    0.0000 H   0  0  0  0  0  0  0  0  0  0  0  0
    3.4860   -4.0715    0.0000 H   0  0  0  0  0  0  0  0  0  0  0  0
  1  6  2  0  0  0  0
  1  7  2  0  0  0  0
  1 15  1  0  0  0  0
  1 27  1  0  0  0  0
  2 13  1  0  0  0  0
  2 26  1  0  0  0  0
  3 16  1  0  0  0  0
  3 19  1  0  0  0  0
  4 22  1  0  0  0  0
  4 31  1  0  0  0  0
  5 23  1  0  0  0  0
  5 32  1  0  0  0  0
  8 11  1  0  0  0  0
  8 13  1  0  0  0  0
  8 18  1  0  0  0  0
  9 12  1  0  0  0  0
  9 18  2  0  0  0  0
 10 30  3  0  0  0  0
 11 12  1  0  0  0  0
 11 17  2  0  0  0  0
 12 21  2  0  0  0  0
 13 20  2  0  0  0  0
 14 15  1  0  0  0  0
 14 16  1  0  0  0  0
 14 24  2  0  0  0  0
 15 25  2  0  0  0  0
 16 33  1  0  0  0  0
 16 34  1  0  0  0  0
 17 22  1  0  0  0  0
 17 35  1  0  0  0  0
 18 36  1  0  0  0  0
 19 20  1  0  0  0  0
 19 26  2  0  0  0  0
 20 37  1  0  0  0  0
 21 23  1  0  0  0  0
 21 38  1  0  0  0  0
 22 23  2  0  0  0  0
 24 28  1  0  0  0  0
 24 39  1  0  0  0  0
 25 29  1  0  0  0  0
 25 40  1  0  0  0  0
 26 30  1  0  0  0  0
 27 41  1  0  0  0  0
 27 42  1  0  0  0  0
 27 43  1  0  0  0  0
 28 29  2  0  0  0  0
 28 44  1  0  0  0  0
 29 45  1  0  0  0  0
 31 46  1  0  0  0  0
 31 47  1  0  0  0  0
 31 48  1  0  0  0  0
 32 49  1  0  0  0  0
 32 50  1  0  0  0  0
 32 51  1  0  0  0  0
M  END
> <PUBCHEM_COMPOUND_CID>
11626927

> <PUBCHEM_COMPOUND_CANONICALIZED>
1

> <PUBCHEM_CACTVS_COMPLEXITY>
797

> <PUBCHEM_CACTVS_HBOND_ACCEPTOR>
8

> <PUBCHEM_CACTVS_HBOND_DONOR>
0

> <PUBCHEM_CACTVS_ROTATABLE_BOND>
7

> <PUBCHEM_CACTVS_SUBSKEYS>
AAADceB7OABgAAAAAAAAAAAAAAAAAWJAAAAwYAAAAAAAAFgB/AAAHgQAAAAADAyh3ga317cMFAq0ByRjZHDjiK1xOrhJ2Do+/JiN7uLkuZuWOCruwBvq6C+w0CMOAEAAAgAEQCAAgAAEAAiAQAAAAAAAAA==

> <PUBCHEM_IUPAC_OPENEYE_NAME>
5-(5,6-dimethoxybenzimidazol-1-yl)-3-[(2-methylsulfonylphenyl)methoxy]thiophene-2-carbonitrile

> <PUBCHEM_IUPAC_CAS_NAME>
5-(5,6-dimethoxy-1-benzimidazolyl)-3-[(2-methylsulfonylphenyl)methoxy]-2-thiophenecarbonitrile

> <PUBCHEM_IUPAC_NAME_MARKUP>
5-(5,6-dimethoxybenzimidazol-1-yl)-3-[(2-methylsulfonylphenyl)methoxy]thiophene-2-carbonitrile

> <PUBCHEM_IUPAC_NAME>
5-(5,6-dimethoxybenzimidazol-1-yl)-3-[(2-methylsulfonylphenyl)methoxy]thiophene-2-carbonitrile

> <PUBCHEM_IUPAC_SYSTEMATIC_NAME>
5-(5,6-dimethoxybenzimidazol-1-yl)-3-[(2-methylsulfonylphenyl)methoxy]thiophene-2-carbonitrile

> <PUBCHEM_IUPAC_TRADITIONAL_NAME>
5-(5,6-dimethoxybenzimidazol-1-yl)-3-(2-mesylbenzyl)oxy-thiophene-2-carbonitrile

> <PUBCHEM_IUPAC_INCHI>
InChI=1S/C22H19N3O5S2/c1-28-17-8-15-16(9-18(17)29-2)25(13-24-15)22-10-19(20(11-23)31-22)30-12-14-6-4-5-7-21(14)32(3,26)27/h4-10,13H,12H2,1-3H3

> <PUBCHEM_IUPAC_INCHIKEY>
LDTAHRLHGHFHKP-UHFFFAOYSA-N

> <PUBCHEM_XLOGP3_AA>
3.8

> <PUBCHEM_EXACT_MASS>
469.07661306

> <PUBCHEM_MOLECULAR_FORMULA>
C22H19N3O5S2

> <PUBCHEM_MOLECULAR_WEIGHT>
469.5

> <PUBCHEM_SMILES>
COC1=C(C=C2C(=C1)N=CN2C3=CC(=C(S3)C#N)OCC4=CC=CC=C4S(=O)(=O)C)OC

> <PUBCHEM_OPENEYE_CAN_SMILES>
COC1=C(C=C2C(=C1)N=CN2C3=CC(=C(S3)C#N)OCC4=CC=CC=C4S(=O)(=O)C)OC

> <PUBCHEM_OPENEYE_ISO_SMILES>
COC1=C(C=C2C(=C1)N=CN2C3=CC(=C(S3)C#N)OCC4=CC=CC=C4S(=O)(=O)C)OC

> <PUBCHEM_CACTVS_TPSA>
140

> <PUBCHEM_MONOISOTOPIC_WEIGHT>
469.07661306

> <PUBCHEM_TOTAL_CHARGE>
0

> <PUBCHEM_HEAVY_ATOM_COUNT>
32

> <PUBCHEM_ATOM_DEF_STEREO_COUNT>
0

> <PUBCHEM_ATOM_UDEF_STEREO_COUNT>
0

> <PUBCHEM_BOND_DEF_STEREO_COUNT>
0

> <PUBCHEM_BOND_UDEF_STEREO_COUNT>
0

> <PUBCHEM_ISOTOPIC_ATOM_COUNT>
0

> <PUBCHEM_COMPONENT_COUNT>
1

> <PUBCHEM_CACTVS_TAUTO_COUNT>
-1

> <PUBCHEM_COORDINATE_TYPE>
1
5
255

> <PUBCHEM_BONDANNOTATIONS>
11  12  8
11  17  8
12  21  8
13  20  8
14  15  8
14  24  8
15  25  8
17  22  8
19  20  8
19  26  8
2  13  8
2  26  8
21  23  8
22  23  8
24  28  8
25  29  8
28  29  8
8  11  8
8  18  8
9  12  8
9  18  8

$$$$
