24899917
  -OEChem-03202506472D

 33 35  0     0  0  0  0  0  0999 V2000
    6.4748    2.6924    0.0000 O   0  0  0  0  0  0  0  0  0  0  0  0
    6.6585   -2.1259    0.0000 O   0  0  0  0  0  0  0  0  0  0  0  0
    8.6412    0.8065    0.0000 O   0  0  0  0  0  0  0  0  0  0  0  0
    2.5932   -0.1682    0.0000 O   0  0  0  0  0  0  0  0  0  0  0  0
    2.1374    1.8288    0.0000 O   0  0  0  0  0  0  0  0  0  0  0  0
    8.0732    2.1331    0.0000 O   0  0  0  0  0  0  0  0  0  0  0  0
    5.0738    0.9357    0.0000 C   0  0  0  0  0  0  0  0  0  0  0  0
    5.9748    0.5018    0.0000 C   0  0  0  0  0  0  0  0  0  0  0  0
    4.8513    1.9106    0.0000 C   0  0  0  0  0  0  0  0  0  0  0  0
    6.8758    0.9357    0.0000 C   0  0  0  0  0  0  0  0  0  0  0  0
    5.4748    2.6924    0.0000 C   0  0  0  0  0  0  0  0  0  0  0  0
    4.3213    0.2155    0.0000 C   0  0  0  0  0  0  0  0  0  0  0  0
    5.8810   -0.5356    0.0000 C   0  0  0  0  0  0  0  0  0  0  0  0
    3.8608    2.2329    0.0000 C   0  0  0  0  0  0  0  0  0  0  0  0
    7.7453    0.3622    0.0000 C   0  0  0  0  0  0  0  0  0  0  0  0
    7.0983    1.9106    0.0000 C   0  0  0  0  0  0  0  0  0  0  0  0
    6.7370   -1.1290    0.0000 C   0  0  0  0  0  0  0  0  0  0  0  0
    3.3236    0.5148    0.0000 C   0  0  0  0  0  0  0  0  0  0  0  0
    3.0918    1.5303    0.0000 C   0  0  0  0  0  0  0  0  0  0  0  0
    7.6755   -0.6771    0.0000 C   0  0  0  0  0  0  0  0  0  0  0  0
    7.4825   -2.6924    0.0000 C   0  0  0  0  0  0  0  0  0  0  0  0
    5.6128    3.2969    0.0000 H   0  0  0  0  0  0  0  0  0  0  0  0
    4.9162    2.9614    0.0000 H   0  0  0  0  0  0  0  0  0  0  0  0
    4.4662   -0.3873    0.0000 H   0  0  0  0  0  0  0  0  0  0  0  0
    5.3193   -0.7982    0.0000 H   0  0  0  0  0  0  0  0  0  0  0  0
    3.7298    2.8389    0.0000 H   0  0  0  0  0  0  0  0  0  0  0  0
    8.1891   -1.0243    0.0000 H   0  0  0  0  0  0  0  0  0  0  0  0
    9.1575    0.4632    0.0000 H   0  0  0  0  0  0  0  0  0  0  0  0
    2.0000    0.0123    0.0000 H   0  0  0  0  0  0  0  0  0  0  0  0
    2.0017    2.4338    0.0000 H   0  0  0  0  0  0  0  0  0  0  0  0
    7.1313   -3.2033    0.0000 H   0  0  0  0  0  0  0  0  0  0  0  0
    7.9934   -3.0436    0.0000 H   0  0  0  0  0  0  0  0  0  0  0  0
    7.8338   -2.1815    0.0000 H   0  0  0  0  0  0  0  0  0  0  0  0
  1 11  1  0  0  0  0
  1 16  1  0  0  0  0
  2 17  1  0  0  0  0
  2 21  1  0  0  0  0
  3 15  1  0  0  0  0
  3 28  1  0  0  0  0
  4 18  1  0  0  0  0
  4 29  1  0  0  0  0
  5 19  1  0  0  0  0
  5 30  1  0  0  0  0
  6 16  2  0  0  0  0
  7  8  1  0  0  0  0
  7  9  1  0  0  0  0
  7 12  2  0  0  0  0
  8 10  2  0  0  0  0
  8 13  1  0  0  0  0
  9 11  1  0  0  0  0
  9 14  2  0  0  0  0
 10 15  1  0  0  0  0
 10 16  1  0  0  0  0
 11 22  1  0  0  0  0
 11 23  1  0  0  0  0
 12 18  1  0  0  0  0
 12 24  1  0  0  0  0
 13 17  2  0  0  0  0
 13 25  1  0  0  0  0
 14 19  1  0  0  0  0
 14 26  1  0  0  0  0
 15 20  2  0  0  0  0
 17 20  1  0  0  0  0
 18 19  2  0  0  0  0
 20 27  1  0  0  0  0
 21 31  1  0  0  0  0
 21 32  1  0  0  0  0
 21 33  1  0  0  0  0
M  END
> <PUBCHEM_COMPOUND_CID>
24899917

> <PUBCHEM_COMPOUND_CANONICALIZED>
1

> <PUBCHEM_CACTVS_COMPLEXITY>
400

> <PUBCHEM_CACTVS_HBOND_ACCEPTOR>
6

> <PUBCHEM_CACTVS_HBOND_DONOR>
3

> <PUBCHEM_CACTVS_ROTATABLE_BOND>
1

> <PUBCHEM_CACTVS_SUBSKEYS>
AAADccBwOAAAAAAAAAAAAAAAAAAAAAAAAAAwYAAABIAAAAABQAAAGgAACAAADASgmAIyDoAABgCIAiDSCAACCAAkIAAAiAEGiMgNJzaGNRqCcWEl4BUJuQfI7PzOoAABCAAYQABAAAIQADCAAAAAAAAAAA==

> <PUBCHEM_IUPAC_OPENEYE_NAME>
2,3,8-trihydroxy-10-methoxy-5H-benzo[d][2]benzoxepin-7-one

> <PUBCHEM_IUPAC_CAS_NAME>
2,3,8-trihydroxy-10-methoxy-5H-benzo[d][2]benzoxepin-7-one

> <PUBCHEM_IUPAC_NAME_MARKUP>
2,3,8-trihydroxy-10-methoxy-5<I>H</I>-benzo[d][2]benzoxepin-7-one

> <PUBCHEM_IUPAC_NAME>
2,3,8-trihydroxy-10-methoxy-5H-benzo[d][2]benzoxepin-7-one

> <PUBCHEM_IUPAC_SYSTEMATIC_NAME>
10-methoxy-2,3,8-tris(oxidanyl)-5H-benzo[d][2]benzoxepin-7-one

> <PUBCHEM_IUPAC_TRADITIONAL_NAME>
2,3,8-trihydroxy-10-methoxy-5H-benzo[d][2]benzoxepin-7-one

> <PUBCHEM_IUPAC_INCHI>
InChI=1S/C15H12O6/c1-20-8-3-10-9-5-12(17)11(16)2-7(9)6-21-15(19)14(10)13(18)4-8/h2-5,16-18H,6H2,1H3

> <PUBCHEM_IUPAC_INCHIKEY>
JAAWVSLYMPCCOD-UHFFFAOYSA-N

> <PUBCHEM_XLOGP3_AA>
2.4

> <PUBCHEM_EXACT_MASS>
288.06338810

> <PUBCHEM_MOLECULAR_FORMULA>
C15H12O6

> <PUBCHEM_MOLECULAR_WEIGHT>
288.25

> <PUBCHEM_SMILES>
COC1=CC2=C(C(=C1)O)C(=O)OCC3=CC(=C(C=C32)O)O

> <PUBCHEM_OPENEYE_CAN_SMILES>
COC1=CC2=C(C(=C1)O)C(=O)OCC3=CC(=C(C=C32)O)O

> <PUBCHEM_OPENEYE_ISO_SMILES>
COC1=CC2=C(C(=C1)O)C(=O)OCC3=CC(=C(C=C32)O)O

> <PUBCHEM_CACTVS_TPSA>
96.2

> <PUBCHEM_MONOISOTOPIC_WEIGHT>
288.06338810

> <PUBCHEM_TOTAL_CHARGE>
0

> <PUBCHEM_HEAVY_ATOM_COUNT>
21

> <PUBCHEM_ATOM_DEF_STEREO_COUNT>
0

> <PUBCHEM_ATOM_UDEF_STEREO_COUNT>
0

> <PUBCHEM_BOND_DEF_STEREO_COUNT>
0

> <PUBCHEM_BOND_UDEF_STEREO_COUNT>
0

> <PUBCHEM_ISOTOPIC_ATOM_COUNT>
0

> <PUBCHEM_COMPONENT_COUNT>
1

> <PUBCHEM_CACTVS_TAUTO_COUNT>
-1

> <PUBCHEM_COORDINATE_TYPE>
1
5
255

> <PUBCHEM_BONDANNOTATIONS>
10  15  8
12  18  8
13  17  8
14  19  8
15  20  8
17  20  8
18  19  8
7  12  8
7  9  8
8  10  8
8  13  8
9  14  8

$$$$
