16050450
  -OEChem-03202503082D

 53 56  0     0  0  0  0  0  0999 V2000
    6.2619   -3.5118    0.0000 F   0  0  0  0  0  0  0  0  0  0  0  0
    9.2619   -1.7798    0.0000 F   0  0  0  0  0  0  0  0  0  0  0  0
    9.8349    3.6519    0.0000 O   0  0  0  0  0  0  0  0  0  0  0  0
    7.2566    1.3384    0.0000 N   0  0  0  0  0  0  0  0  0  0  0  0
    3.7320   -1.2798    0.0000 N   0  0  0  0  0  0  0  0  0  0  0  0
    5.9674    0.1817    0.0000 N   0  0  0  0  0  0  0  0  0  0  0  0
    4.6783   -2.5845    0.0000 N   0  0  0  0  0  0  0  0  0  0  0  0
    5.6103    1.8765    0.0000 N   0  0  0  0  0  0  0  0  0  0  0  0
    2.0000   -2.2798    0.0000 N   0  0  0  0  0  0  0  0  0  0  0  0
    8.5458    2.4952    0.0000 C   0  0  0  0  0  0  0  0  0  0  0  0
    7.5673    2.2890    0.0000 C   0  0  0  0  0  0  0  0  0  0  0  0
    9.5243    2.7014    0.0000 C   0  0  0  0  0  0  0  0  0  0  0  0
    8.3396    3.4737    0.0000 C   0  0  0  0  0  0  0  0  0  0  0  0
    8.7520    1.5167    0.0000 C   0  0  0  0  0  0  0  0  0  0  0  0
    4.6783   -0.9750    0.0000 C   0  0  0  0  0  0  0  0  0  0  0  0
    6.2781    1.1322    0.0000 C   0  0  0  0  0  0  0  0  0  0  0  0
    5.2619   -1.7798    0.0000 C   0  0  0  0  0  0  0  0  0  0  0  0
    4.9889   -0.0245    0.0000 C   0  0  0  0  0  0  0  0  0  0  0  0
    3.7320   -2.2798    0.0000 C   0  0  0  0  0  0  0  0  0  0  0  0
    6.2619   -1.7798    0.0000 C   0  0  0  0  0  0  0  0  0  0  0  0
    2.8660   -2.7798    0.0000 C   0  0  0  0  0  0  0  0  0  0  0  0
    2.8660   -0.7798    0.0000 C   0  0  0  0  0  0  0  0  0  0  0  0
    4.3211    0.7198    0.0000 C   0  0  0  0  0  0  0  0  0  0  0  0
    4.6318    1.6703    0.0000 C   0  0  0  0  0  0  0  0  0  0  0  0
    2.0000   -1.2798    0.0000 C   0  0  0  0  0  0  0  0  0  0  0  0
    6.7619   -2.6458    0.0000 C   0  0  0  0  0  0  0  0  0  0  0  0
    6.7619   -0.9137    0.0000 C   0  0  0  0  0  0  0  0  0  0  0  0
    2.8660   -3.7798    0.0000 C   0  0  0  0  0  0  0  0  0  0  0  0
    7.7619   -2.6458    0.0000 C   0  0  0  0  0  0  0  0  0  0  0  0
    7.7619   -0.9137    0.0000 C   0  0  0  0  0  0  0  0  0  0  0  0
    8.2619   -1.7798    0.0000 C   0  0  0  0  0  0  0  0  0  0  0  0
    7.5467    2.9086    0.0000 H   0  0  0  0  0  0  0  0  0  0  0  0
    6.9534    2.3763    0.0000 H   0  0  0  0  0  0  0  0  0  0  0  0
    9.5448    2.0817    0.0000 H   0  0  0  0  0  0  0  0  0  0  0  0
   10.1381    2.6141    0.0000 H   0  0  0  0  0  0  0  0  0  0  0  0
    8.9462    3.6015    0.0000 H   0  0  0  0  0  0  0  0  0  0  0  0
    8.2117    4.0804    0.0000 H   0  0  0  0  0  0  0  0  0  0  0  0
    7.7329    3.3458    0.0000 H   0  0  0  0  0  0  0  0  0  0  0  0
    8.1453    1.3888    0.0000 H   0  0  0  0  0  0  0  0  0  0  0  0
    8.8798    0.9100    0.0000 H   0  0  0  0  0  0  0  0  0  0  0  0
    9.3587    1.6445    0.0000 H   0  0  0  0  0  0  0  0  0  0  0  0
    7.6707    0.8770    0.0000 H   0  0  0  0  0  0  0  0  0  0  0  0
   10.4416    3.7798    0.0000 H   0  0  0  0  0  0  0  0  0  0  0  0
    2.8660   -0.1598    0.0000 H   0  0  0  0  0  0  0  0  0  0  0  0
    3.7144    0.5919    0.0000 H   0  0  0  0  0  0  0  0  0  0  0  0
    4.2177    2.1318    0.0000 H   0  0  0  0  0  0  0  0  0  0  0  0
    1.4631   -0.9698    0.0000 H   0  0  0  0  0  0  0  0  0  0  0  0
    6.4519   -0.3768    0.0000 H   0  0  0  0  0  0  0  0  0  0  0  0
    2.2460   -3.7798    0.0000 H   0  0  0  0  0  0  0  0  0  0  0  0
    2.8660   -4.3998    0.0000 H   0  0  0  0  0  0  0  0  0  0  0  0
    3.4860   -3.7798    0.0000 H   0  0  0  0  0  0  0  0  0  0  0  0
    8.0719   -3.1827    0.0000 H   0  0  0  0  0  0  0  0  0  0  0  0
    8.0719   -0.3768    0.0000 H   0  0  0  0  0  0  0  0  0  0  0  0
  1 26  1  0  0  0  0
  2 31  1  0  0  0  0
  3 12  1  0  0  0  0
  3 43  1  0  0  0  0
  4 11  1  0  0  0  0
  4 16  1  0  0  0  0
  4 42  1  0  0  0  0
  5 15  1  0  0  0  0
  5 19  1  0  0  0  0
  5 22  1  0  0  0  0
  6 16  1  0  0  0  0
  6 18  2  0  0  0  0
  7 17  1  0  0  0  0
  7 19  2  0  0  0  0
  8 16  2  0  0  0  0
  8 24  1  0  0  0  0
  9 21  2  0  0  0  0
  9 25  1  0  0  0  0
 10 11  1  0  0  0  0
 10 12  1  0  0  0  0
 10 13  1  0  0  0  0
 10 14  1  0  0  0  0
 11 32  1  0  0  0  0
 11 33  1  0  0  0  0
 12 34  1  0  0  0  0
 12 35  1  0  0  0  0
 13 36  1  0  0  0  0
 13 37  1  0  0  0  0
 13 38  1  0  0  0  0
 14 39  1  0  0  0  0
 14 40  1  0  0  0  0
 14 41  1  0  0  0  0
 15 17  2  0  0  0  0
 15 18  1  0  0  0  0
 17 20  1  0  0  0  0
 18 23  1  0  0  0  0
 19 21  1  0  0  0  0
 20 26  2  0  0  0  0
 20 27  1  0  0  0  0
 21 28  1  0  0  0  0
 22 25  2  0  0  0  0
 22 44  1  0  0  0  0
 23 24  2  0  0  0  0
 23 45  1  0  0  0  0
 24 46  1  0  0  0  0
 25 47  1  0  0  0  0
 26 29  1  0  0  0  0
 27 30  2  0  0  0  0
 27 48  1  0  0  0  0
 28 49  1  0  0  0  0
 28 50  1  0  0  0  0
 28 51  1  0  0  0  0
 29 31  2  0  0  0  0
 29 52  1  0  0  0  0
 30 31  1  0  0  0  0
 30 53  1  0  0  0  0
M  END
> <PUBCHEM_COMPOUND_CID>
16050450

> <PUBCHEM_COMPOUND_CANONICALIZED>
1

> <PUBCHEM_CACTVS_COMPLEXITY>
598

> <PUBCHEM_CACTVS_HBOND_ACCEPTOR>
8

> <PUBCHEM_CACTVS_HBOND_DONOR>
2

> <PUBCHEM_CACTVS_ROTATABLE_BOND>
6

> <PUBCHEM_CACTVS_SUBSKEYS>
AAADceB7oYAAAAAAAAAAAAAAAAAAAWAAAAA8WIAAAAAAAFgB/AAAHwAQCAAADgjhnw4/sJ/MGgCgAzZnZACCgC0xEqAJ2KA4dJiIeOLA2dGUZAhqgALIyCcQgMAOAAAAAAAAAAAAAAAAAAAAAAAAAAAAAA==

> <PUBCHEM_IUPAC_OPENEYE_NAME>
3-[[4-[2-(2,4-difluorophenyl)-8-methyl-imidazo[1,2-a]pyrazin-3-yl]pyrimidin-2-yl]amino]-2,2-dimethyl-propan-1-ol

> <PUBCHEM_IUPAC_CAS_NAME>
3-[[4-[2-(2,4-difluorophenyl)-8-methyl-3-imidazo[1,2-a]pyrazinyl]-2-pyrimidinyl]amino]-2,2-dimethyl-1-propanol

> <PUBCHEM_IUPAC_NAME_MARKUP>
3-[[4-[2-(2,4-difluorophenyl)-8-methylimidazo[1,2-a]pyrazin-3-yl]pyrimidin-2-yl]amino]-2,2-dimethylpropan-1-ol

> <PUBCHEM_IUPAC_NAME>
3-[[4-[2-(2,4-difluorophenyl)-8-methylimidazo[1,2-a]pyrazin-3-yl]pyrimidin-2-yl]amino]-2,2-dimethylpropan-1-ol

> <PUBCHEM_IUPAC_SYSTEMATIC_NAME>
3-[[4-[2-[2,4-bis(fluoranyl)phenyl]-8-methyl-imidazo[1,2-a]pyrazin-3-yl]pyrimidin-2-yl]amino]-2,2-dimethyl-propan-1-ol

> <PUBCHEM_IUPAC_TRADITIONAL_NAME>
3-[[4-[2-(2,4-difluorophenyl)-8-methyl-imidazo[1,2-a]pyrazin-3-yl]pyrimidin-2-yl]amino]-2,2-dimethyl-propan-1-ol

> <PUBCHEM_IUPAC_INCHI>
InChI=1S/C22H22F2N6O/c1-13-20-29-18(15-5-4-14(23)10-16(15)24)19(30(20)9-8-25-13)17-6-7-26-21(28-17)27-11-22(2,3)12-31/h4-10,31H,11-12H2,1-3H3,(H,26,27,28)

> <PUBCHEM_IUPAC_INCHIKEY>
WYBGYJNIKOAPQI-UHFFFAOYSA-N

> <PUBCHEM_XLOGP3_AA>
4.3

> <PUBCHEM_EXACT_MASS>
424.18231567

> <PUBCHEM_MOLECULAR_FORMULA>
C22H22F2N6O

> <PUBCHEM_MOLECULAR_WEIGHT>
424.4

> <PUBCHEM_SMILES>
CC1=NC=CN2C1=NC(=C2C3=NC(=NC=C3)NCC(C)(C)CO)C4=C(C=C(C=C4)F)F

> <PUBCHEM_OPENEYE_CAN_SMILES>
CC1=NC=CN2C1=NC(=C2C3=NC(=NC=C3)NCC(C)(C)CO)C4=C(C=C(C=C4)F)F

> <PUBCHEM_OPENEYE_ISO_SMILES>
CC1=NC=CN2C1=NC(=C2C3=NC(=NC=C3)NCC(C)(C)CO)C4=C(C=C(C=C4)F)F

> <PUBCHEM_CACTVS_TPSA>
88.2

> <PUBCHEM_MONOISOTOPIC_WEIGHT>
424.18231567

> <PUBCHEM_TOTAL_CHARGE>
0

> <PUBCHEM_HEAVY_ATOM_COUNT>
31

> <PUBCHEM_ATOM_DEF_STEREO_COUNT>
0

> <PUBCHEM_ATOM_UDEF_STEREO_COUNT>
0

> <PUBCHEM_BOND_DEF_STEREO_COUNT>
0

> <PUBCHEM_BOND_UDEF_STEREO_COUNT>
0

> <PUBCHEM_ISOTOPIC_ATOM_COUNT>
0

> <PUBCHEM_COMPONENT_COUNT>
1

> <PUBCHEM_CACTVS_TAUTO_COUNT>
-1

> <PUBCHEM_COORDINATE_TYPE>
1
5
255

> <PUBCHEM_BONDANNOTATIONS>
15  17  8
18  23  8
19  21  8
20  26  8
20  27  8
22  25  8
23  24  8
26  29  8
27  30  8
29  31  8
30  31  8
5  15  8
5  19  8
5  22  8
6  16  8
6  18  8
7  17  8
7  19  8
8  16  8
8  24  8
9  21  8
9  25  8

$$$$
