23647236
  -OEChem-03202505572D

 35 38  0     0  0  0  0  0  0999 V2000
    2.0000   -1.8523    0.0000 Cl  0  0  0  0  0  0  0  0  0  0  0  0
    5.5301    1.1718    0.0000 O   0  0  0  0  0  0  0  0  0  0  0  0
    5.5301   -2.8282    0.0000 O   0  0  0  0  0  0  0  0  0  0  0  0
    7.3424   -0.0234    0.0000 N   0  0  0  0  0  0  0  0  0  0  0  0
    5.5301    0.1719    0.0000 N   0  0  0  0  0  0  0  0  0  0  0  0
    7.9260   -0.8281    0.0000 N   0  0  0  0  0  0  0  0  0  0  0  0
    6.3961   -0.3281    0.0000 C   0  0  0  0  0  0  0  0  0  0  0  0
    6.3961   -1.3282    0.0000 C   0  0  0  0  0  0  0  0  0  0  0  0
    4.6641   -0.3281    0.0000 C   0  0  0  0  0  0  0  0  0  0  0  0
    4.6641   -1.3282    0.0000 C   0  0  0  0  0  0  0  0  0  0  0  0
    7.3424   -1.6329    0.0000 C   0  0  0  0  0  0  0  0  0  0  0  0
    5.5301   -1.8282    0.0000 C   0  0  0  0  0  0  0  0  0  0  0  0
    7.6530    0.9271    0.0000 C   0  0  0  0  0  0  0  0  0  0  0  0
    3.7702    0.2065    0.0000 C   0  0  0  0  0  0  0  0  0  0  0  0
    3.7702   -1.8628    0.0000 C   0  0  0  0  0  0  0  0  0  0  0  0
    7.6530   -2.5834    0.0000 C   0  0  0  0  0  0  0  0  0  0  0  0
    2.8641   -0.3073    0.0000 C   0  0  0  0  0  0  0  0  0  0  0  0
    2.8641   -1.3490    0.0000 C   0  0  0  0  0  0  0  0  0  0  0  0
    8.6315    1.1333    0.0000 C   0  0  0  0  0  0  0  0  0  0  0  0
    6.9852    1.6714    0.0000 C   0  0  0  0  0  0  0  0  0  0  0  0
    8.9422    2.0838    0.0000 C   0  0  0  0  0  0  0  0  0  0  0  0
    7.2958    2.6219    0.0000 C   0  0  0  0  0  0  0  0  0  0  0  0
    8.2744    2.8282    0.0000 C   0  0  0  0  0  0  0  0  0  0  0  0
    3.7773    0.8265    0.0000 H   0  0  0  0  0  0  0  0  0  0  0  0
    3.7773   -2.4828    0.0000 H   0  0  0  0  0  0  0  0  0  0  0  0
    7.0637   -2.7760    0.0000 H   0  0  0  0  0  0  0  0  0  0  0  0
    7.8456   -3.1727    0.0000 H   0  0  0  0  0  0  0  0  0  0  0  0
    8.2424   -2.3908    0.0000 H   0  0  0  0  0  0  0  0  0  0  0  0
    2.3284    0.0047    0.0000 H   0  0  0  0  0  0  0  0  0  0  0  0
    9.0456    0.6719    0.0000 H   0  0  0  0  0  0  0  0  0  0  0  0
    6.3785    1.5436    0.0000 H   0  0  0  0  0  0  0  0  0  0  0  0
    4.9932    1.4818    0.0000 H   0  0  0  0  0  0  0  0  0  0  0  0
    9.5489    2.2117    0.0000 H   0  0  0  0  0  0  0  0  0  0  0  0
    6.8818    3.0834    0.0000 H   0  0  0  0  0  0  0  0  0  0  0  0
    8.4670    3.4175    0.0000 H   0  0  0  0  0  0  0  0  0  0  0  0
  1 18  1  0  0  0  0
  2  5  1  0  0  0  0
  2 32  1  0  0  0  0
  3 12  2  0  0  0  0
  4  6  1  0  0  0  0
  4  7  1  0  0  0  0
  4 13  1  0  0  0  0
  5  7  1  0  0  0  0
  5  9  1  0  0  0  0
  6 11  2  0  0  0  0
  7  8  2  0  0  0  0
  8 11  1  0  0  0  0
  8 12  1  0  0  0  0
  9 10  2  0  0  0  0
  9 14  1  0  0  0  0
 10 12  1  0  0  0  0
 10 15  1  0  0  0  0
 11 16  1  0  0  0  0
 13 19  2  0  0  0  0
 13 20  1  0  0  0  0
 14 17  2  0  0  0  0
 14 24  1  0  0  0  0
 15 18  2  0  0  0  0
 15 25  1  0  0  0  0
 16 26  1  0  0  0  0
 16 27  1  0  0  0  0
 16 28  1  0  0  0  0
 17 18  1  0  0  0  0
 17 29  1  0  0  0  0
 19 21  1  0  0  0  0
 19 30  1  0  0  0  0
 20 22  2  0  0  0  0
 20 31  1  0  0  0  0
 21 23  2  0  0  0  0
 21 33  1  0  0  0  0
 22 23  1  0  0  0  0
 22 34  1  0  0  0  0
 23 35  1  0  0  0  0
M  END
> <PUBCHEM_COMPOUND_CID>
23647236

> <PUBCHEM_COMPOUND_CANONICALIZED>
1

> <PUBCHEM_CACTVS_COMPLEXITY>
471

> <PUBCHEM_CACTVS_HBOND_ACCEPTOR>
4

> <PUBCHEM_CACTVS_HBOND_DONOR>
1

> <PUBCHEM_CACTVS_ROTATABLE_BOND>
1

> <PUBCHEM_CACTVS_SUBSKEYS>
AAADccB7MAAEAAAAAAAAAAAAAAAAAWAAAAA8YIAAAAAAAFix0AAAHgIMCAAADA6BniAz8JIYAACqA6ZyZACSBCMlBwA9mCEwZtiIIHrB39GEpYhoiALIyecYiMCOAABAIAACAAAAAIBAAAQAAAAAAAAAAA==

> <PUBCHEM_IUPAC_OPENEYE_NAME>
6-chloro-9-hydroxy-3-methyl-1-phenyl-pyrazolo[3,4-b]quinolin-4-one

> <PUBCHEM_IUPAC_CAS_NAME>
6-chloro-9-hydroxy-3-methyl-1-phenyl-4-pyrazolo[3,4-b]quinolinone

> <PUBCHEM_IUPAC_NAME_MARKUP>
6-chloro-9-hydroxy-3-methyl-1-phenylpyrazolo[3,4-b]quinolin-4-one

> <PUBCHEM_IUPAC_NAME>
6-chloro-9-hydroxy-3-methyl-1-phenylpyrazolo[3,4-b]quinolin-4-one

> <PUBCHEM_IUPAC_SYSTEMATIC_NAME>
6-chloranyl-3-methyl-9-oxidanyl-1-phenyl-pyrazolo[3,4-b]quinolin-4-one

> <PUBCHEM_IUPAC_TRADITIONAL_NAME>
6-chloro-9-hydroxy-3-methyl-1-phenyl-pyrazolo[3,4-b]quinolin-4-one

> <PUBCHEM_IUPAC_INCHI>
InChI=1S/C17H12ClN3O2/c1-10-15-16(22)13-9-11(18)7-8-14(13)21(23)17(15)20(19-10)12-5-3-2-4-6-12/h2-9,23H,1H3

> <PUBCHEM_IUPAC_INCHIKEY>
NLNVCPSZHKGGDI-UHFFFAOYSA-N

> <PUBCHEM_XLOGP3_AA>
4

> <PUBCHEM_EXACT_MASS>
325.0618043

> <PUBCHEM_MOLECULAR_FORMULA>
C17H12ClN3O2

> <PUBCHEM_MOLECULAR_WEIGHT>
325.7

> <PUBCHEM_SMILES>
CC1=NN(C2=C1C(=O)C3=C(N2O)C=CC(=C3)Cl)C4=CC=CC=C4

> <PUBCHEM_OPENEYE_CAN_SMILES>
CC1=NN(C2=C1C(=O)C3=C(N2O)C=CC(=C3)Cl)C4=CC=CC=C4

> <PUBCHEM_OPENEYE_ISO_SMILES>
CC1=NN(C2=C1C(=O)C3=C(N2O)C=CC(=C3)Cl)C4=CC=CC=C4

> <PUBCHEM_CACTVS_TPSA>
58.4

> <PUBCHEM_MONOISOTOPIC_WEIGHT>
325.0618043

> <PUBCHEM_TOTAL_CHARGE>
0

> <PUBCHEM_HEAVY_ATOM_COUNT>
23

> <PUBCHEM_ATOM_DEF_STEREO_COUNT>
0

> <PUBCHEM_ATOM_UDEF_STEREO_COUNT>
0

> <PUBCHEM_BOND_DEF_STEREO_COUNT>
0

> <PUBCHEM_BOND_UDEF_STEREO_COUNT>
0

> <PUBCHEM_ISOTOPIC_ATOM_COUNT>
0

> <PUBCHEM_COMPONENT_COUNT>
1

> <PUBCHEM_CACTVS_TAUTO_COUNT>
-1

> <PUBCHEM_COORDINATE_TYPE>
1
5
255

> <PUBCHEM_BONDANNOTATIONS>
10  12  8
10  15  8
13  19  8
13  20  8
14  17  8
15  18  8
17  18  8
19  21  8
20  22  8
21  23  8
22  23  8
4  6  8
4  7  8
5  7  8
5  9  8
6  11  8
7  8  8
8  11  8
8  12  8
9  10  8
9  14  8

$$$$
