44411048
  -OEChem-03202505582D

 51 54  0     1  0  0  0  0  0999 V2000
   12.6587   -1.2599    0.0000 Cl  0  0  0  0  0  0  0  0  0  0  0  0
   10.9383   -0.2399    0.0000 F   0  0  0  0  0  0  0  0  0  0  0  0
    3.9467    3.2397    0.0000 O   0  0  0  0  0  0  0  0  0  0  0  0
    5.7144    1.8148    0.0000 O   0  0  0  0  0  0  0  0  0  0  0  0
    4.8484    0.3147    0.0000 N   0  0  3  0  0  0  0  0  0  0  0  0
    2.3644    2.5352    0.0000 N   0  0  0  0  0  0  0  0  0  0  0  0
    9.2064    1.8494    0.0000 N   0  0  0  0  0  0  0  0  0  0  0  0
    9.1948   -1.2199    0.0000 N   0  0  0  0  0  0  0  0  0  0  0  0
   10.1125    0.2939    0.0000 N   0  0  0  0  0  0  0  0  0  0  0  0
    3.7657    1.5172    0.0000 C   0  0  2  0  0  0  0  0  0  0  0  0
    4.7438    1.3093    0.0000 C   0  0  0  0  0  0  0  0  0  0  0  0
    3.2657    0.6512    0.0000 C   0  0  0  0  0  0  0  0  0  0  0  0
    3.9348   -0.0920    0.0000 C   0  0  0  0  0  0  0  0  0  0  0  0
    5.7144   -0.1853    0.0000 C   0  0  0  0  0  0  0  0  0  0  0  0
    3.3590    2.4307    0.0000 C   0  0  0  0  0  0  0  0  0  0  0  0
    6.5804    0.3147    0.0000 C   0  0  0  0  0  0  0  0  0  0  0  0
    6.5804    1.3148    0.0000 C   0  0  0  0  0  0  0  0  0  0  0  0
    7.4464   -0.1853    0.0000 C   0  0  0  0  0  0  0  0  0  0  0  0
    8.3125    0.3147    0.0000 C   0  0  0  0  0  0  0  0  0  0  0  0
    7.4464    1.8148    0.0000 C   0  0  0  0  0  0  0  0  0  0  0  0
    8.3125    1.3148    0.0000 C   0  0  0  0  0  0  0  0  0  0  0  0
    9.2064   -0.2199    0.0000 C   0  0  0  0  0  0  0  0  0  0  0  0
    5.7144    2.8148    0.0000 C   0  0  0  0  0  0  0  0  0  0  0  0
   10.1125    1.3356    0.0000 C   0  0  0  0  0  0  0  0  0  0  0  0
   10.0550   -1.7298    0.0000 C   0  0  0  0  0  0  0  0  0  0  0  0
   10.9268   -1.2399    0.0000 C   0  0  0  0  0  0  0  0  0  0  0  0
   10.0435   -2.7298    0.0000 C   0  0  0  0  0  0  0  0  0  0  0  0
   11.7870   -1.7499    0.0000 C   0  0  0  0  0  0  0  0  0  0  0  0
   10.9037   -3.2397    0.0000 C   0  0  0  0  0  0  0  0  0  0  0  0
   11.7754   -2.7498    0.0000 C   0  0  0  0  0  0  0  0  0  0  0  0
    3.1465    1.5496    0.0000 H   0  0  0  0  0  0  0  0  0  0  0  0
    5.3638    1.3093    0.0000 H   0  0  0  0  0  0  0  0  0  0  0  0
    4.8086    1.9259    0.0000 H   0  0  0  0  0  0  0  0  0  0  0  0
    2.7641    1.0156    0.0000 H   0  0  0  0  0  0  0  0  0  0  0  0
    2.8508    0.1904    0.0000 H   0  0  0  0  0  0  0  0  0  0  0  0
    3.4332   -0.4564    0.0000 H   0  0  0  0  0  0  0  0  0  0  0  0
    4.2448   -0.6289    0.0000 H   0  0  0  0  0  0  0  0  0  0  0  0
    5.3159   -0.6602    0.0000 H   0  0  0  0  0  0  0  0  0  0  0  0
    6.1129   -0.6602    0.0000 H   0  0  0  0  0  0  0  0  0  0  0  0
    7.4464   -0.8053    0.0000 H   0  0  0  0  0  0  0  0  0  0  0  0
    2.1122    3.1016    0.0000 H   0  0  0  0  0  0  0  0  0  0  0  0
    2.0000    2.0337    0.0000 H   0  0  0  0  0  0  0  0  0  0  0  0
    7.4464    2.4348    0.0000 H   0  0  0  0  0  0  0  0  0  0  0  0
    8.6544   -1.5236    0.0000 H   0  0  0  0  0  0  0  0  0  0  0  0
    6.3344    2.8148    0.0000 H   0  0  0  0  0  0  0  0  0  0  0  0
    5.7144    3.4348    0.0000 H   0  0  0  0  0  0  0  0  0  0  0  0
    5.0944    2.8148    0.0000 H   0  0  0  0  0  0  0  0  0  0  0  0
   10.6482    1.6476    0.0000 H   0  0  0  0  0  0  0  0  0  0  0  0
    9.5030   -3.0335    0.0000 H   0  0  0  0  0  0  0  0  0  0  0  0
   10.8965   -3.8597    0.0000 H   0  0  0  0  0  0  0  0  0  0  0  0
   12.3087   -3.0660    0.0000 H   0  0  0  0  0  0  0  0  0  0  0  0
  1 28  1  0  0  0  0
  2 26  1  0  0  0  0
  3 15  2  0  0  0  0
  4 17  1  0  0  0  0
  4 23  1  0  0  0  0
  5 11  1  0  0  0  0
  5 13  1  0  0  0  0
  5 14  1  0  0  0  0
  6 15  1  0  0  0  0
  6 41  1  0  0  0  0
  6 42  1  0  0  0  0
  7 21  1  0  0  0  0
  7 24  2  0  0  0  0
  8 22  1  0  0  0  0
  8 25  1  0  0  0  0
  8 44  1  0  0  0  0
  9 22  2  0  0  0  0
  9 24  1  0  0  0  0
 10 11  1  0  0  0  0
 10 12  1  0  0  0  0
 10 15  1  6  0  0  0
 10 31  1  0  0  0  0
 11 32  1  0  0  0  0
 11 33  1  0  0  0  0
 12 13  1  0  0  0  0
 12 34  1  0  0  0  0
 12 35  1  0  0  0  0
 13 36  1  0  0  0  0
 13 37  1  0  0  0  0
 14 16  1  0  0  0  0
 14 38  1  0  0  0  0
 14 39  1  0  0  0  0
 16 17  1  0  0  0  0
 16 18  2  0  0  0  0
 17 20  2  0  0  0  0
 18 19  1  0  0  0  0
 18 40  1  0  0  0  0
 19 21  2  0  0  0  0
 19 22  1  0  0  0  0
 20 21  1  0  0  0  0
 20 43  1  0  0  0  0
 23 45  1  0  0  0  0
 23 46  1  0  0  0  0
 23 47  1  0  0  0  0
 24 48  1  0  0  0  0
 25 26  2  0  0  0  0
 25 27  1  0  0  0  0
 26 28  1  0  0  0  0
 27 29  2  0  0  0  0
 27 49  1  0  0  0  0
 28 30  2  0  0  0  0
 29 30  1  0  0  0  0
 29 50  1  0  0  0  0
 30 51  1  0  0  0  0
M  END
> <PUBCHEM_COMPOUND_CID>
44411048

> <PUBCHEM_COMPOUND_CANONICALIZED>
1

> <PUBCHEM_CACTVS_COMPLEXITY>
602

> <PUBCHEM_CACTVS_HBOND_ACCEPTOR>
7

> <PUBCHEM_CACTVS_HBOND_DONOR>
2

> <PUBCHEM_CACTVS_ROTATABLE_BOND>
6

> <PUBCHEM_CACTVS_SUBSKEYS>
AAADceB7sQAEAAAAAAAAAAAAAAAAAWAAAAA8YIAAAAAAAACx9AAAHwIQAAAADQ7Bni439vfIFACoAydzdACCiCkxJ6AJ2CE+bpiMLvrF+9uENChu0BvI6CeU0GMOKAACAgIKAABQAAQEBBQAAAAAAAAAAA==

> <PUBCHEM_IUPAC_OPENEYE_NAME>
(3S)-1-[[4-(3-chloro-2-fluoro-anilino)-7-methoxy-quinazolin-6-yl]methyl]pyrrolidine-3-carboxamide

> <PUBCHEM_IUPAC_CAS_NAME>
(3S)-1-[[4-(3-chloro-2-fluoroanilino)-7-methoxy-6-quinazolinyl]methyl]-3-pyrrolidinecarboxamide

> <PUBCHEM_IUPAC_NAME_MARKUP>
(3<I>S</I>)-1-[[4-(3-chloro-2-fluoroanilino)-7-methoxyquinazolin-6-yl]methyl]pyrrolidine-3-carboxamide

> <PUBCHEM_IUPAC_NAME>
(3S)-1-[[4-(3-chloro-2-fluoroanilino)-7-methoxyquinazolin-6-yl]methyl]pyrrolidine-3-carboxamide

> <PUBCHEM_IUPAC_SYSTEMATIC_NAME>
(3S)-1-[[4-[(3-chloranyl-2-fluoranyl-phenyl)amino]-7-methoxy-quinazolin-6-yl]methyl]pyrrolidine-3-carboxamide

> <PUBCHEM_IUPAC_TRADITIONAL_NAME>
(3S)-1-[[4-(3-chloro-2-fluoro-anilino)-7-methoxy-quinazolin-6-yl]methyl]pyrrolidine-3-carboxamide

> <PUBCHEM_IUPAC_INCHI>
InChI=1S/C21H21ClFN5O2/c1-30-18-8-17-14(7-13(18)10-28-6-5-12(9-28)20(24)29)21(26-11-25-17)27-16-4-2-3-15(22)19(16)23/h2-4,7-8,11-12H,5-6,9-10H2,1H3,(H2,24,29)(H,25,26,27)/t12-/m0/s1

> <PUBCHEM_IUPAC_INCHIKEY>
LJQYPRWRCBYQIO-LBPRGKRZSA-N

> <PUBCHEM_XLOGP3_AA>
3

> <PUBCHEM_EXACT_MASS>
429.1367808

> <PUBCHEM_MOLECULAR_FORMULA>
C21H21ClFN5O2

> <PUBCHEM_MOLECULAR_WEIGHT>
429.9

> <PUBCHEM_SMILES>
COC1=CC2=C(C=C1CN3CC[C@@H](C3)C(=O)N)C(=NC=N2)NC4=C(C(=CC=C4)Cl)F

> <PUBCHEM_OPENEYE_CAN_SMILES>
COC1=CC2=C(C=C1CN3CCC(C3)C(=O)N)C(=NC=N2)NC4=C(C(=CC=C4)Cl)F

> <PUBCHEM_OPENEYE_ISO_SMILES>
COC1=CC2=C(C=C1CN3CC[C@@H](C3)C(=O)N)C(=NC=N2)NC4=C(C(=CC=C4)Cl)F

> <PUBCHEM_CACTVS_TPSA>
93.4

> <PUBCHEM_MONOISOTOPIC_WEIGHT>
429.1367808

> <PUBCHEM_TOTAL_CHARGE>
0

> <PUBCHEM_HEAVY_ATOM_COUNT>
30

> <PUBCHEM_ATOM_DEF_STEREO_COUNT>
1

> <PUBCHEM_ATOM_UDEF_STEREO_COUNT>
0

> <PUBCHEM_BOND_DEF_STEREO_COUNT>
0

> <PUBCHEM_BOND_UDEF_STEREO_COUNT>
0

> <PUBCHEM_ISOTOPIC_ATOM_COUNT>
0

> <PUBCHEM_COMPONENT_COUNT>
1

> <PUBCHEM_CACTVS_TAUTO_COUNT>
-1

> <PUBCHEM_COORDINATE_TYPE>
1
5
255

> <PUBCHEM_BONDANNOTATIONS>
10  15  6
16  17  8
16  18  8
17  20  8
18  19  8
19  21  8
19  22  8
20  21  8
25  26  8
25  27  8
26  28  8
27  29  8
28  30  8
29  30  8
7  21  8
7  24  8
9  22  8
9  24  8

$$$$
