44396134
  -OEChem-03202500362D

 66 72  0     0  0  0  0  0  0999 V2000
    7.1488    3.1934    0.0000 O   0  0  0  0  0  0  0  0  0  0  0  0
    2.0000   -1.5151    0.0000 O   0  0  0  0  0  0  0  0  0  0  0  0
    3.6283   -4.6360    0.0000 O   0  0  0  0  0  0  0  0  0  0  0  0
    4.3167    0.4610    0.0000 N   0  0  0  0  0  0  0  0  0  0  0  0
    5.7177    2.2177    0.0000 N   0  0  0  0  0  0  0  0  0  0  0  0
    5.5883    3.9449    0.0000 N   0  0  0  0  0  0  0  0  0  0  0  0
    2.5670   -3.2045    0.0000 N   0  0  0  0  0  0  0  0  0  0  0  0
    5.6108   -3.9646    0.0000 N   0  0  0  0  0  0  0  0  0  0  0  0
    6.7384   -2.8130    0.0000 N   0  0  0  0  0  0  0  0  0  0  0  0
    5.2177    0.0271    0.0000 C   0  0  0  0  0  0  0  0  0  0  0  0
    4.0942    1.4359    0.0000 C   0  0  0  0  0  0  0  0  0  0  0  0
    4.7177    2.2177    0.0000 C   0  0  0  0  0  0  0  0  0  0  0  0
    6.1187    0.4610    0.0000 C   0  0  0  0  0  0  0  0  0  0  0  0
    6.3412    1.4359    0.0000 C   0  0  0  0  0  0  0  0  0  0  0  0
    5.1239   -1.0103    0.0000 C   0  0  0  0  0  0  0  0  0  0  0  0
    6.0222    4.8459    0.0000 C   0  0  0  0  0  0  0  0  0  0  0  0
    4.5911    3.8702    0.0000 C   0  0  0  0  0  0  0  0  0  0  0  0
    4.1454   -1.1541    0.0000 C   0  0  0  0  0  0  0  0  0  0  0  0
    5.4588    5.6721    0.0000 C   0  0  0  0  0  0  0  0  0  0  0  0
    4.0278    4.6964    0.0000 C   0  0  0  0  0  0  0  0  0  0  0  0
    4.4616    5.5974    0.0000 C   0  0  0  0  0  0  0  0  0  0  0  0
    6.1516    3.1187    0.0000 C   0  0  0  0  0  0  0  0  0  0  0  0
    3.6697   -0.2870    0.0000 C   0  0  0  0  0  0  0  0  0  0  0  0
    6.9883   -0.1125    0.0000 C   0  0  0  0  0  0  0  0  0  0  0  0
    5.9800   -1.6037    0.0000 C   0  0  0  0  0  0  0  0  0  0  0  0
    3.7000   -2.0494    0.0000 C   0  0  0  0  0  0  0  0  0  0  0  0
    6.9184   -1.1518    0.0000 C   0  0  0  0  0  0  0  0  0  0  0  0
    4.1626   -2.9360    0.0000 C   0  0  0  0  0  0  0  0  0  0  0  0
    2.7139   -2.2154    0.0000 C   0  0  0  0  0  0  0  0  0  0  0  0
    7.7468   -1.7119    0.0000 C   0  0  0  0  0  0  0  0  0  0  0  0
    5.1518   -3.0829    0.0000 C   0  0  0  0  0  0  0  0  0  0  0  0
    3.4624   -3.6499    0.0000 C   0  0  0  0  0  0  0  0  0  0  0  0
    5.8472   -2.3726    0.0000 C   0  0  0  0  0  0  0  0  0  0  0  0
    6.5967   -3.7969    0.0000 C   0  0  0  0  0  0  0  0  0  0  0  0
    5.2631   -4.9022    0.0000 C   0  0  0  0  0  0  0  0  0  0  0  0
    7.2348   -4.5669    0.0000 C   0  0  0  0  0  0  0  0  0  0  0  0
    5.9012   -5.6721    0.0000 C   0  0  0  0  0  0  0  0  0  0  0  0
    6.8871   -5.5045    0.0000 C   0  0  0  0  0  0  0  0  0  0  0  0
    3.7077    1.9206    0.0000 H   0  0  0  0  0  0  0  0  0  0  0  0
    3.5356    1.1669    0.0000 H   0  0  0  0  0  0  0  0  0  0  0  0
    4.8557    2.8222    0.0000 H   0  0  0  0  0  0  0  0  0  0  0  0
    4.1591    2.4867    0.0000 H   0  0  0  0  0  0  0  0  0  0  0  0
    6.8998    1.1669    0.0000 H   0  0  0  0  0  0  0  0  0  0  0  0
    6.7278    1.9206    0.0000 H   0  0  0  0  0  0  0  0  0  0  0  0
    6.5256    4.4840    0.0000 H   0  0  0  0  0  0  0  0  0  0  0  0
    6.4660    5.2788    0.0000 H   0  0  0  0  0  0  0  0  0  0  0  0
    4.0259    3.6152    0.0000 H   0  0  0  0  0  0  0  0  0  0  0  0
    4.7441    3.2694    0.0000 H   0  0  0  0  0  0  0  0  0  0  0  0
    6.0240    5.9271    0.0000 H   0  0  0  0  0  0  0  0  0  0  0  0
    5.3059    6.2730    0.0000 H   0  0  0  0  0  0  0  0  0  0  0  0
    3.5244    5.0584    0.0000 H   0  0  0  0  0  0  0  0  0  0  0  0
    3.5839    4.2635    0.0000 H   0  0  0  0  0  0  0  0  0  0  0  0
    4.5234    6.2143    0.0000 H   0  0  0  0  0  0  0  0  0  0  0  0
    3.8648    5.7653    0.0000 H   0  0  0  0  0  0  0  0  0  0  0  0
    3.0532   -0.2216    0.0000 H   0  0  0  0  0  0  0  0  0  0  0  0
    7.5437    0.1630    0.0000 H   0  0  0  0  0  0  0  0  0  0  0  0
    5.9312   -2.2218    0.0000 H   0  0  0  0  0  0  0  0  0  0  0  0
    7.3996   -2.2255    0.0000 H   0  0  0  0  0  0  0  0  0  0  0  0
    8.2604   -2.0592    0.0000 H   0  0  0  0  0  0  0  0  0  0  0  0
    8.0941   -1.1983    0.0000 H   0  0  0  0  0  0  0  0  0  0  0  0
    2.0173   -3.4913    0.0000 H   0  0  0  0  0  0  0  0  0  0  0  0
    5.7433   -1.7614    0.0000 H   0  0  0  0  0  0  0  0  0  0  0  0
    4.6519   -5.0062    0.0000 H   0  0  0  0  0  0  0  0  0  0  0  0
    7.8460   -4.4629    0.0000 H   0  0  0  0  0  0  0  0  0  0  0  0
    5.6856   -6.2534    0.0000 H   0  0  0  0  0  0  0  0  0  0  0  0
    7.2827   -5.9818    0.0000 H   0  0  0  0  0  0  0  0  0  0  0  0
  1 22  2  0  0  0  0
  2 29  2  0  0  0  0
  3 32  2  0  0  0  0
  4 10  1  0  0  0  0
  4 11  1  0  0  0  0
  4 23  1  0  0  0  0
  5 12  1  0  0  0  0
  5 14  1  0  0  0  0
  5 22  1  0  0  0  0
  6 16  1  0  0  0  0
  6 17  1  0  0  0  0
  6 22  1  0  0  0  0
  7 29  1  0  0  0  0
  7 32  1  0  0  0  0
  7 61  1  0  0  0  0
  8 31  1  0  0  0  0
  8 34  1  0  0  0  0
  8 35  1  0  0  0  0
  9 33  1  0  0  0  0
  9 34  2  0  0  0  0
 10 13  2  0  0  0  0
 10 15  1  0  0  0  0
 11 12  1  0  0  0  0
 11 39  1  0  0  0  0
 11 40  1  0  0  0  0
 12 41  1  0  0  0  0
 12 42  1  0  0  0  0
 13 14  1  0  0  0  0
 13 24  1  0  0  0  0
 14 43  1  0  0  0  0
 14 44  1  0  0  0  0
 15 18  1  0  0  0  0
 15 25  2  0  0  0  0
 16 19  1  0  0  0  0
 16 45  1  0  0  0  0
 16 46  1  0  0  0  0
 17 20  1  0  0  0  0
 17 47  1  0  0  0  0
 17 48  1  0  0  0  0
 18 23  2  0  0  0  0
 18 26  1  0  0  0  0
 19 21  1  0  0  0  0
 19 49  1  0  0  0  0
 19 50  1  0  0  0  0
 20 21  1  0  0  0  0
 20 51  1  0  0  0  0
 20 52  1  0  0  0  0
 21 53  1  0  0  0  0
 21 54  1  0  0  0  0
 23 55  1  0  0  0  0
 24 27  2  0  0  0  0
 24 56  1  0  0  0  0
 25 27  1  0  0  0  0
 25 57  1  0  0  0  0
 26 28  2  0  0  0  0
 26 29  1  0  0  0  0
 27 30  1  0  0  0  0
 28 31  1  0  0  0  0
 28 32  1  0  0  0  0
 30 58  1  0  0  0  0
 30 59  1  0  0  0  0
 30 60  1  0  0  0  0
 31 33  2  0  0  0  0
 33 62  1  0  0  0  0
 34 36  1  0  0  0  0
 35 37  2  0  0  0  0
 35 63  1  0  0  0  0
 36 38  2  0  0  0  0
 36 64  1  0  0  0  0
 37 38  1  0  0  0  0
 37 65  1  0  0  0  0
 38 66  1  0  0  0  0
M  END
> <PUBCHEM_COMPOUND_CID>
44396134

> <PUBCHEM_COMPOUND_CANONICALIZED>
1

> <PUBCHEM_CACTVS_COMPLEXITY>
1020

> <PUBCHEM_CACTVS_HBOND_ACCEPTOR>
4

> <PUBCHEM_CACTVS_HBOND_DONOR>
1

> <PUBCHEM_CACTVS_ROTATABLE_BOND>
2

> <PUBCHEM_CACTVS_SUBSKEYS>
AAADceB7sAAAAAAAAAAAAAAAAAAAAWLEAAA8WIAABYAAAFix/gAAHgAQAAAADAjBnwQ/8P/MGACoAzd3dACCgC0xEqAJ2CE4dNiIaPrA3ZGUIAhohiLIySccicCeiAACAAACAAAQAAQAAAQAAAAAAAAAAA==

> <PUBCHEM_IUPAC_OPENEYE_NAME>
3-imidazo[1,2-a]pyridin-3-yl-4-[6-methyl-10-(piperidine-1-carbonyl)-1,10-diazatricyclo[6.4.1.04,13]trideca-2,4,6,8(13)-tetraen-3-yl]pyrrole-2,5-dione

> <PUBCHEM_IUPAC_CAS_NAME>
3-(3-imidazo[1,2-a]pyridinyl)-4-[6-methyl-10-[oxo(1-piperidinyl)methyl]-1,10-diazatricyclo[6.4.1.04,13]trideca-2,4,6,8(13)-tetraen-3-yl]pyrrole-2,5-dione

> <PUBCHEM_IUPAC_NAME_MARKUP>
3-imidazo[1,2-a]pyridin-3-yl-4-[6-methyl-10-(piperidine-1-carbonyl)-1,10-diazatricyclo[6.4.1.0<SUP>4,13</SUP>]trideca-2,4,6,8(13)-tetraen-3-yl]pyrrole-2,5-dione

> <PUBCHEM_IUPAC_NAME>
3-imidazo[1,2-a]pyridin-3-yl-4-[6-methyl-10-(piperidine-1-carbonyl)-1,10-diazatricyclo[6.4.1.04,13]trideca-2,4,6,8(13)-tetraen-3-yl]pyrrole-2,5-dione

> <PUBCHEM_IUPAC_SYSTEMATIC_NAME>
3-imidazo[1,2-a]pyridin-3-yl-4-(6-methyl-10-piperidin-1-ylcarbonyl-1,10-diazatricyclo[6.4.1.04,13]trideca-2,4,6,8(13)-tetraen-3-yl)pyrrole-2,5-dione

> <PUBCHEM_IUPAC_TRADITIONAL_NAME>
3-imidazo[1,2-a]pyridin-3-yl-4-[6-methyl-10-(piperidine-1-carbonyl)-1,10-diazatricyclo[6.4.1.04,13]trideca-2,4,6,8(13)-tetraen-3-yl]-3-pyrroline-2,5-quinone

> <PUBCHEM_IUPAC_INCHI>
InChI=1S/C29H28N6O3/c1-18-13-19-16-34(29(38)32-8-4-2-5-9-32)12-11-33-17-21(20(14-18)26(19)33)24-25(28(37)31-27(24)36)22-15-30-23-7-3-6-10-35(22)23/h3,6-7,10,13-15,17H,2,4-5,8-9,11-12,16H2,1H3,(H,31,36,37)

> <PUBCHEM_IUPAC_INCHIKEY>
LQESNGDPCQOCKO-UHFFFAOYSA-N

> <PUBCHEM_XLOGP3_AA>
2.7

> <PUBCHEM_EXACT_MASS>
508.22228878

> <PUBCHEM_MOLECULAR_FORMULA>
C29H28N6O3

> <PUBCHEM_MOLECULAR_WEIGHT>
508.6

> <PUBCHEM_SMILES>
CC1=CC2=C3C(=C1)C(=CN3CCN(C2)C(=O)N4CCCCC4)C5=C(C(=O)NC5=O)C6=CN=C7N6C=CC=C7

> <PUBCHEM_OPENEYE_CAN_SMILES>
CC1=CC2=C3C(=C1)C(=CN3CCN(C2)C(=O)N4CCCCC4)C5=C(C(=O)NC5=O)C6=CN=C7N6C=CC=C7

> <PUBCHEM_OPENEYE_ISO_SMILES>
CC1=CC2=C3C(=C1)C(=CN3CCN(C2)C(=O)N4CCCCC4)C5=C(C(=O)NC5=O)C6=CN=C7N6C=CC=C7

> <PUBCHEM_CACTVS_TPSA>
92

> <PUBCHEM_MONOISOTOPIC_WEIGHT>
508.22228878

> <PUBCHEM_TOTAL_CHARGE>
0

> <PUBCHEM_HEAVY_ATOM_COUNT>
38

> <PUBCHEM_ATOM_DEF_STEREO_COUNT>
0

> <PUBCHEM_ATOM_UDEF_STEREO_COUNT>
0

> <PUBCHEM_BOND_DEF_STEREO_COUNT>
0

> <PUBCHEM_BOND_UDEF_STEREO_COUNT>
0

> <PUBCHEM_ISOTOPIC_ATOM_COUNT>
0

> <PUBCHEM_COMPONENT_COUNT>
1

> <PUBCHEM_CACTVS_TAUTO_COUNT>
-1

> <PUBCHEM_COORDINATE_TYPE>
1
5
255

> <PUBCHEM_BONDANNOTATIONS>
10  13  8
10  15  8
13  24  8
15  18  8
15  25  8
18  23  8
24  27  8
25  27  8
31  33  8
34  36  8
35  37  8
36  38  8
37  38  8
4  10  8
4  23  8
8  31  8
8  34  8
8  35  8
9  33  8
9  34  8

$$$$
