49830788
  -OEChem-03202504042D

 34 35  0     1  0  0  0  0  0999 V2000
    4.5981   -0.0530    0.0000 O   0  0  0  0  0  0  0  0  0  0  0  0
    2.8660    1.9470    0.0000 O   0  0  0  0  0  0  0  0  0  0  0  0
    6.4103   -2.8577    0.0000 N   0  0  0  0  0  0  0  0  0  0  0  0
    6.9939   -2.0530    0.0000 N   0  0  0  0  0  0  0  0  0  0  0  0
    6.7210   -0.2977    0.0000 N   0  0  0  0  0  0  0  0  0  0  0  0
    3.7320    0.4470    0.0000 C   0  0  3  0  0  0  0  0  0  0  0  0
    5.4641   -1.5530    0.0000 C   0  0  0  0  0  0  0  0  0  0  0  0
    4.5981   -1.0530    0.0000 C   0  0  0  0  0  0  0  0  0  0  0  0
    3.7320    1.4470    0.0000 C   0  0  0  0  0  0  0  0  0  0  0  0
    5.4641   -2.5530    0.0000 C   0  0  0  0  0  0  0  0  0  0  0  0
    2.8660   -0.0530    0.0000 C   0  0  0  0  0  0  0  0  0  0  0  0
    6.4103   -1.2482    0.0000 C   0  0  0  0  0  0  0  0  0  0  0  0
    3.7320   -1.5530    0.0000 C   0  0  0  0  0  0  0  0  0  0  0  0
    4.5981   -3.0530    0.0000 C   0  0  0  0  0  0  0  0  0  0  0  0
    3.7320   -2.5530    0.0000 C   0  0  0  0  0  0  0  0  0  0  0  0
    2.8660    2.9470    0.0000 C   0  0  0  0  0  0  0  0  0  0  0  0
    2.0000    3.4470    0.0000 C   0  0  0  0  0  0  0  0  0  0  0  0
    3.7320   -0.1730    0.0000 H   0  0  0  0  0  0  0  0  0  0  0  0
    4.3426    1.3394    0.0000 H   0  0  0  0  0  0  0  0  0  0  0  0
    3.9441    2.0296    0.0000 H   0  0  0  0  0  0  0  0  0  0  0  0
    2.5560    0.4840    0.0000 H   0  0  0  0  0  0  0  0  0  0  0  0
    2.3291   -0.3630    0.0000 H   0  0  0  0  0  0  0  0  0  0  0  0
    3.1760   -0.5899    0.0000 H   0  0  0  0  0  0  0  0  0  0  0  0
    3.1951   -1.2430    0.0000 H   0  0  0  0  0  0  0  0  0  0  0  0
    4.5981   -3.6730    0.0000 H   0  0  0  0  0  0  0  0  0  0  0  0
    6.6029   -3.4470    0.0000 H   0  0  0  0  0  0  0  0  0  0  0  0
    3.1951   -2.8630    0.0000 H   0  0  0  0  0  0  0  0  0  0  0  0
    3.4766    2.8394    0.0000 H   0  0  0  0  0  0  0  0  0  0  0  0
    3.0781    3.5296    0.0000 H   0  0  0  0  0  0  0  0  0  0  0  0
    7.3277   -0.1699    0.0000 H   0  0  0  0  0  0  0  0  0  0  0  0
    6.3069    0.1637    0.0000 H   0  0  0  0  0  0  0  0  0  0  0  0
    2.3100    3.9840    0.0000 H   0  0  0  0  0  0  0  0  0  0  0  0
    1.4631    3.7570    0.0000 H   0  0  0  0  0  0  0  0  0  0  0  0
    1.6900    2.9101    0.0000 H   0  0  0  0  0  0  0  0  0  0  0  0
  1  6  1  0  0  0  0
  1  8  1  0  0  0  0
  2  9  1  0  0  0  0
  2 16  1  0  0  0  0
  3  4  1  0  0  0  0
  3 10  1  0  0  0  0
  3 26  1  0  0  0  0
  4 12  2  0  0  0  0
  5 12  1  0  0  0  0
  5 30  1  0  0  0  0
  5 31  1  0  0  0  0
  6  9  1  0  0  0  0
  6 11  1  0  0  0  0
  6 18  1  0  0  0  0
  7  8  1  0  0  0  0
  7 10  2  0  0  0  0
  7 12  1  0  0  0  0
  8 13  2  0  0  0  0
  9 19  1  0  0  0  0
  9 20  1  0  0  0  0
 10 14  1  0  0  0  0
 11 21  1  0  0  0  0
 11 22  1  0  0  0  0
 11 23  1  0  0  0  0
 13 15  1  0  0  0  0
 13 24  1  0  0  0  0
 14 15  2  0  0  0  0
 14 25  1  0  0  0  0
 15 27  1  0  0  0  0
 16 17  1  0  0  0  0
 16 28  1  0  0  0  0
 16 29  1  0  0  0  0
 17 32  1  0  0  0  0
 17 33  1  0  0  0  0
 17 34  1  0  0  0  0
M  END
> <PUBCHEM_COMPOUND_CID>
49830788

> <PUBCHEM_COMPOUND_CANONICALIZED>
1

> <PUBCHEM_CACTVS_COMPLEXITY>
240

> <PUBCHEM_CACTVS_HBOND_ACCEPTOR>
4

> <PUBCHEM_CACTVS_HBOND_DONOR>
2

> <PUBCHEM_CACTVS_ROTATABLE_BOND>
5

> <PUBCHEM_CACTVS_SUBSKEYS>
AAADceBzMAAAAAAAAAAAAAAAAAAAAWAAAAAwAAAAAAAAAFgB8AAAHgAYAAAADByhngIz9vBjBACiAyZiYACSDAIgIgAcuSA2bJgNJqKE8duCvCD22BkK6AeQ0CEOAAAAAgAKAAAAAAAEABQAAAAAAAAAAA==

> <PUBCHEM_IUPAC_OPENEYE_NAME>
4-(2-ethoxy-1-methyl-ethoxy)-1H-indazol-3-amine

> <PUBCHEM_IUPAC_CAS_NAME>
4-(1-ethoxypropan-2-yloxy)-1H-indazol-3-amine

> <PUBCHEM_IUPAC_NAME_MARKUP>
4-(1-ethoxypropan-2-yloxy)-1<I>H</I>-indazol-3-amine

> <PUBCHEM_IUPAC_NAME>
4-(1-ethoxypropan-2-yloxy)-1H-indazol-3-amine

> <PUBCHEM_IUPAC_SYSTEMATIC_NAME>
4-(1-ethoxypropan-2-yloxy)-1H-indazol-3-amine

> <PUBCHEM_IUPAC_TRADITIONAL_NAME>
[4-(2-ethoxy-1-methyl-ethoxy)-1H-indazol-3-yl]amine

> <PUBCHEM_IUPAC_INCHI>
InChI=1S/C12H17N3O2/c1-3-16-7-8(2)17-10-6-4-5-9-11(10)12(13)15-14-9/h4-6,8H,3,7H2,1-2H3,(H3,13,14,15)

> <PUBCHEM_IUPAC_INCHIKEY>
NKBWVNORZJNFAW-UHFFFAOYSA-N

> <PUBCHEM_XLOGP3_AA>
1.8

> <PUBCHEM_EXACT_MASS>
235.132076794

> <PUBCHEM_MOLECULAR_FORMULA>
C12H17N3O2

> <PUBCHEM_MOLECULAR_WEIGHT>
235.28

> <PUBCHEM_SMILES>
CCOCC(C)OC1=CC=CC2=C1C(=NN2)N

> <PUBCHEM_OPENEYE_CAN_SMILES>
CCOCC(C)OC1=CC=CC2=C1C(=NN2)N

> <PUBCHEM_OPENEYE_ISO_SMILES>
CCOCC(C)OC1=CC=CC2=C1C(=NN2)N

> <PUBCHEM_CACTVS_TPSA>
73.2

> <PUBCHEM_MONOISOTOPIC_WEIGHT>
235.132076794

> <PUBCHEM_TOTAL_CHARGE>
0

> <PUBCHEM_HEAVY_ATOM_COUNT>
17

> <PUBCHEM_ATOM_DEF_STEREO_COUNT>
0

> <PUBCHEM_ATOM_UDEF_STEREO_COUNT>
1

> <PUBCHEM_BOND_DEF_STEREO_COUNT>
0

> <PUBCHEM_BOND_UDEF_STEREO_COUNT>
0

> <PUBCHEM_ISOTOPIC_ATOM_COUNT>
0

> <PUBCHEM_COMPONENT_COUNT>
1

> <PUBCHEM_CACTVS_TAUTO_COUNT>
-1

> <PUBCHEM_COORDINATE_TYPE>
1
5
255

> <PUBCHEM_BONDANNOTATIONS>
10  14  8
13  15  8
14  15  8
3  10  8
3  4  8
4  12  8
6  11  3
7  10  8
7  12  8
7  8  8
8  13  8

$$$$
