49830552
  -OEChem-03202504222D

 41 44  0     0  0  0  0  0  0999 V2000
    3.4632   -1.8308    0.0000 O   0  0  0  0  0  0  0  0  0  0  0  0
    5.8169    2.5194    0.0000 O   0  0  0  0  0  0  0  0  0  0  0  0
    4.8830   -0.5722    0.0000 N   0  0  0  0  0  0  0  0  0  0  0  0
    4.3830    1.6184    0.0000 N   0  0  0  0  0  0  0  0  0  0  0  0
    8.2646   -1.2422    0.0000 N   0  0  0  0  0  0  0  0  0  0  0  0
   11.1347   -0.3690    0.0000 N   0  0  0  0  0  0  0  0  0  0  0  0
    5.7840   -0.1383    0.0000 C   0  0  0  0  0  0  0  0  0  0  0  0
    3.9820   -0.1383    0.0000 C   0  0  0  0  0  0  0  0  0  0  0  0
    6.0065    0.8366    0.0000 C   0  0  0  0  0  0  0  0  0  0  0  0
    3.7595    0.8366    0.0000 C   0  0  0  0  0  0  0  0  0  0  0  0
    6.5365   -0.8585    0.0000 C   0  0  0  0  0  0  0  0  0  0  0  0
    7.5342   -0.5592    0.0000 C   0  0  0  0  0  0  0  0  0  0  0  0
    5.3830    1.6184    0.0000 C   0  0  0  0  0  0  0  0  0  0  0  0
    3.2295   -0.8585    0.0000 C   0  0  0  0  0  0  0  0  0  0  0  0
    6.9970    1.1589    0.0000 C   0  0  0  0  0  0  0  0  0  0  0  0
    7.7660    0.4563    0.0000 C   0  0  0  0  0  0  0  0  0  0  0  0
    2.7690    1.1590    0.0000 C   0  0  0  0  0  0  0  0  0  0  0  0
    2.2318   -0.5591    0.0000 C   0  0  0  0  0  0  0  0  0  0  0  0
    2.0000    0.4564    0.0000 C   0  0  0  0  0  0  0  0  0  0  0  0
    9.2213   -0.9511    0.0000 C   0  0  0  0  0  0  0  0  0  0  0  0
    9.4476    0.0229    0.0000 C   0  0  0  0  0  0  0  0  0  0  0  0
    9.9518   -1.6341    0.0000 C   0  0  0  0  0  0  0  0  0  0  0  0
    2.7381   -2.5194    0.0000 C   0  0  0  0  0  0  0  0  0  0  0  0
   10.4043    0.3140    0.0000 C   0  0  0  0  0  0  0  0  0  0  0  0
   10.9085   -1.3431    0.0000 C   0  0  0  0  0  0  0  0  0  0  0  0
    4.8830   -1.1922    0.0000 H   0  0  0  0  0  0  0  0  0  0  0  0
    6.3916   -1.4613    0.0000 H   0  0  0  0  0  0  0  0  0  0  0  0
    4.1140    2.1770    0.0000 H   0  0  0  0  0  0  0  0  0  0  0  0
    7.1280    1.7649    0.0000 H   0  0  0  0  0  0  0  0  0  0  0  0
    8.3578    0.6414    0.0000 H   0  0  0  0  0  0  0  0  0  0  0  0
    2.6380    1.7650    0.0000 H   0  0  0  0  0  0  0  0  0  0  0  0
    1.7789   -0.9826    0.0000 H   0  0  0  0  0  0  0  0  0  0  0  0
    1.4083    0.6414    0.0000 H   0  0  0  0  0  0  0  0  0  0  0  0
    8.1243   -1.8461    0.0000 H   0  0  0  0  0  0  0  0  0  0  0  0
    8.9948    0.4464    0.0000 H   0  0  0  0  0  0  0  0  0  0  0  0
    9.8115   -2.2380    0.0000 H   0  0  0  0  0  0  0  0  0  0  0  0
    2.3112   -2.0698    0.0000 H   0  0  0  0  0  0  0  0  0  0  0  0
    2.2885   -2.9463    0.0000 H   0  0  0  0  0  0  0  0  0  0  0  0
    3.1650   -2.9690    0.0000 H   0  0  0  0  0  0  0  0  0  0  0  0
   10.5446    0.9179    0.0000 H   0  0  0  0  0  0  0  0  0  0  0  0
   11.3613   -1.7665    0.0000 H   0  0  0  0  0  0  0  0  0  0  0  0
  1 14  1  0  0  0  0
  1 23  1  0  0  0  0
  2 13  2  0  0  0  0
  3  7  1  0  0  0  0
  3  8  1  0  0  0  0
  3 26  1  0  0  0  0
  4 10  1  0  0  0  0
  4 13  1  0  0  0  0
  4 28  1  0  0  0  0
  5 12  1  0  0  0  0
  5 20  1  0  0  0  0
  5 34  1  0  0  0  0
  6 24  2  0  0  0  0
  6 25  1  0  0  0  0
  7  9  2  0  0  0  0
  7 11  1  0  0  0  0
  8 10  2  0  0  0  0
  8 14  1  0  0  0  0
  9 13  1  0  0  0  0
  9 15  1  0  0  0  0
 10 17  1  0  0  0  0
 11 12  2  0  0  0  0
 11 27  1  0  0  0  0
 12 16  1  0  0  0  0
 14 18  2  0  0  0  0
 15 16  2  0  0  0  0
 15 29  1  0  0  0  0
 16 30  1  0  0  0  0
 17 19  2  0  0  0  0
 17 31  1  0  0  0  0
 18 19  1  0  0  0  0
 18 32  1  0  0  0  0
 19 33  1  0  0  0  0
 20 21  2  0  0  0  0
 20 22  1  0  0  0  0
 21 24  1  0  0  0  0
 21 35  1  0  0  0  0
 22 25  2  0  0  0  0
 22 36  1  0  0  0  0
 23 37  1  0  0  0  0
 23 38  1  0  0  0  0
 23 39  1  0  0  0  0
 24 40  1  0  0  0  0
 25 41  1  0  0  0  0
M  END
> <PUBCHEM_COMPOUND_CID>
49830552

> <PUBCHEM_COMPOUND_CANONICALIZED>
1

> <PUBCHEM_CACTVS_COMPLEXITY>
468

> <PUBCHEM_CACTVS_HBOND_ACCEPTOR>
5

> <PUBCHEM_CACTVS_HBOND_DONOR>
3

> <PUBCHEM_CACTVS_ROTATABLE_BOND>
3

> <PUBCHEM_CACTVS_SUBSKEYS>
AAADceB7sAAAAAAAAAAAAAAAAAAAAAAAAAA8YIAABYAAAAAB0AAAHgAQAAAADAzBmgY+xpLIFACoAjV3VACCiCA1IiAI2CE/fNgOZnrE9duVNahm1BnY6ceY2QOeCAAAAgQCECAQAAAECAQgQAAAAAAAAA==

> <PUBCHEM_IUPAC_OPENEYE_NAME>
1-methoxy-9-(4-pyridylamino)-5,11-dihydrobenzo[b][1,4]benzodiazepin-6-one

> <PUBCHEM_IUPAC_CAS_NAME>
1-methoxy-9-(pyridin-4-ylamino)-5,11-dihydrobenzo[b][1,4]benzodiazepin-6-one

> <PUBCHEM_IUPAC_NAME_MARKUP>
1-methoxy-9-(pyridin-4-ylamino)-5,11-dihydrobenzo[b][1,4]benzodiazepin-6-one

> <PUBCHEM_IUPAC_NAME>
1-methoxy-9-(pyridin-4-ylamino)-5,11-dihydrobenzo[b][1,4]benzodiazepin-6-one

> <PUBCHEM_IUPAC_SYSTEMATIC_NAME>
1-methoxy-9-(pyridin-4-ylamino)-5,11-dihydrobenzo[b][1,4]benzodiazepin-6-one

> <PUBCHEM_IUPAC_TRADITIONAL_NAME>
1-methoxy-9-(4-pyridylamino)-5,11-dihydrobenzo[b][1,4]benzodiazepin-6-one

> <PUBCHEM_IUPAC_INCHI>
InChI=1S/C19H16N4O2/c1-25-17-4-2-3-15-18(17)22-16-11-13(5-6-14(16)19(24)23-15)21-12-7-9-20-10-8-12/h2-11,22H,1H3,(H,20,21)(H,23,24)

> <PUBCHEM_IUPAC_INCHIKEY>
VKWVIEBXAPQKKA-UHFFFAOYSA-N

> <PUBCHEM_XLOGP3_AA>
2.8

> <PUBCHEM_EXACT_MASS>
332.12732577

> <PUBCHEM_MOLECULAR_FORMULA>
C19H16N4O2

> <PUBCHEM_MOLECULAR_WEIGHT>
332.4

> <PUBCHEM_SMILES>
COC1=CC=CC2=C1NC3=C(C=CC(=C3)NC4=CC=NC=C4)C(=O)N2

> <PUBCHEM_OPENEYE_CAN_SMILES>
COC1=CC=CC2=C1NC3=C(C=CC(=C3)NC4=CC=NC=C4)C(=O)N2

> <PUBCHEM_OPENEYE_ISO_SMILES>
COC1=CC=CC2=C1NC3=C(C=CC(=C3)NC4=CC=NC=C4)C(=O)N2

> <PUBCHEM_CACTVS_TPSA>
75.3

> <PUBCHEM_MONOISOTOPIC_WEIGHT>
332.12732577

> <PUBCHEM_TOTAL_CHARGE>
0

> <PUBCHEM_HEAVY_ATOM_COUNT>
25

> <PUBCHEM_ATOM_DEF_STEREO_COUNT>
0

> <PUBCHEM_ATOM_UDEF_STEREO_COUNT>
0

> <PUBCHEM_BOND_DEF_STEREO_COUNT>
0

> <PUBCHEM_BOND_UDEF_STEREO_COUNT>
0

> <PUBCHEM_ISOTOPIC_ATOM_COUNT>
0

> <PUBCHEM_COMPONENT_COUNT>
1

> <PUBCHEM_CACTVS_TAUTO_COUNT>
-1

> <PUBCHEM_COORDINATE_TYPE>
1
5
255

> <PUBCHEM_BONDANNOTATIONS>
10  17  8
11  12  8
12  16  8
14  18  8
15  16  8
17  19  8
18  19  8
20  21  8
20  22  8
21  24  8
22  25  8
6  24  8
6  25  8
7  11  8
7  9  8
8  10  8
8  14  8
9  15  8

$$$$
