11785878
  -OEChem-03202506102D

 70 76  0     0  0  0  0  0  0999 V2000
   11.6057    2.6784    0.0000 O   0  0  0  0  0  0  0  0  0  0  0  0
    4.6038    1.6408    0.0000 N   0  0  0  0  0  0  0  0  0  0  0  0
    2.8680    2.6342    0.0000 N   0  0  0  0  0  0  0  0  0  0  0  0
   11.6057   -0.3216    0.0000 N   0  0  0  0  0  0  0  0  0  0  0  0
   12.4718    1.1784    0.0000 N   0  0  0  0  0  0  0  0  0  0  0  0
   13.2088   -0.4887    0.0000 N   0  0  0  0  0  0  0  0  0  0  0  0
    9.8458   -0.3563    0.0000 N   0  0  0  0  0  0  0  0  0  0  0  0
    8.0756   -0.3458    0.0000 N   0  0  0  0  0  0  0  0  0  0  0  0
    8.9397    1.1992    0.0000 N   0  0  0  0  0  0  0  0  0  0  0  0
    4.6000    2.6408    0.0000 C   0  0  0  0  0  0  0  0  0  0  0  0
    3.7398    1.1375    0.0000 C   0  0  0  0  0  0  0  0  0  0  0  0
    3.7320    3.1375    0.0000 C   0  0  0  0  0  0  0  0  0  0  0  0
    2.8718    1.6342    0.0000 C   0  0  0  0  0  0  0  0  0  0  0  0
    5.4718    1.1442    0.0000 C   0  0  0  0  0  0  0  0  0  0  0  0
    2.0000    3.1308    0.0000 C   0  0  0  0  0  0  0  0  0  0  0  0
   12.4718    0.1784    0.0000 C   0  0  0  0  0  0  0  0  0  0  0  0
   10.7397    0.1784    0.0000 C   0  0  0  0  0  0  0  0  0  0  0  0
   11.8150   -1.2934    0.0000 C   0  0  0  0  0  0  0  0  0  0  0  0
    5.4756    0.1442    0.0000 C   0  0  0  0  0  0  0  0  0  0  0  0
    6.3359    1.6475    0.0000 C   0  0  0  0  0  0  0  0  0  0  0  0
   13.3378    1.6784    0.0000 C   0  0  0  0  0  0  0  0  0  0  0  0
   10.7397    1.1784    0.0000 C   0  0  0  0  0  0  0  0  0  0  0  0
   11.6057    1.6784    0.0000 C   0  0  0  0  0  0  0  0  0  0  0  0
   12.8037   -1.3965    0.0000 C   0  0  0  0  0  0  0  0  0  0  0  0
    7.2077    0.1509    0.0000 C   0  0  0  0  0  0  0  0  0  0  0  0
    6.3436   -0.3525    0.0000 C   0  0  0  0  0  0  0  0  0  0  0  0
    7.2038    1.1509    0.0000 C   0  0  0  0  0  0  0  0  0  0  0  0
   13.3378    2.6784    0.0000 C   0  0  0  0  0  0  0  0  0  0  0  0
   14.2038    1.1784    0.0000 C   0  0  0  0  0  0  0  0  0  0  0  0
   11.1942   -2.1222    0.0000 C   0  0  0  0  0  0  0  0  0  0  0  0
    8.9397    0.1575    0.0000 C   0  0  0  0  0  0  0  0  0  0  0  0
    9.8458    1.7130    0.0000 C   0  0  0  0  0  0  0  0  0  0  0  0
   13.2402   -2.3355    0.0000 C   0  0  0  0  0  0  0  0  0  0  0  0
   14.2038    3.1784    0.0000 C   0  0  0  0  0  0  0  0  0  0  0  0
   15.0699    1.6784    0.0000 C   0  0  0  0  0  0  0  0  0  0  0  0
   11.6089   -3.0710    0.0000 C   0  0  0  0  0  0  0  0  0  0  0  0
   12.6388   -3.1784    0.0000 C   0  0  0  0  0  0  0  0  0  0  0  0
   12.4718    3.1784    0.0000 C   0  0  0  0  0  0  0  0  0  0  0  0
   14.2038    0.1784    0.0000 C   0  0  0  0  0  0  0  0  0  0  0  0
   15.0699    2.6784    0.0000 C   0  0  0  0  0  0  0  0  0  0  0  0
    5.2110    2.5355    0.0000 H   0  0  0  0  0  0  0  0  0  0  0  0
    4.8098    3.2243    0.0000 H   0  0  0  0  0  0  0  0  0  0  0  0
    3.3430    0.6610    0.0000 H   0  0  0  0  0  0  0  0  0  0  0  0
    4.1401    0.6641    0.0000 H   0  0  0  0  0  0  0  0  0  0  0  0
    4.1287    3.6140    0.0000 H   0  0  0  0  0  0  0  0  0  0  0  0
    3.3317    3.6109    0.0000 H   0  0  0  0  0  0  0  0  0  0  0  0
    2.2608    1.7395    0.0000 H   0  0  0  0  0  0  0  0  0  0  0  0
    2.6620    1.0508    0.0000 H   0  0  0  0  0  0  0  0  0  0  0  0
    2.3079    3.6690    0.0000 H   0  0  0  0  0  0  0  0  0  0  0  0
    1.4619    3.4388    0.0000 H   0  0  0  0  0  0  0  0  0  0  0  0
    1.6921    2.5927    0.0000 H   0  0  0  0  0  0  0  0  0  0  0  0
    4.9399   -0.1679    0.0000 H   0  0  0  0  0  0  0  0  0  0  0  0
    6.3335    2.2675    0.0000 H   0  0  0  0  0  0  0  0  0  0  0  0
    6.3460   -0.9725    0.0000 H   0  0  0  0  0  0  0  0  0  0  0  0
    7.7396    1.4629    0.0000 H   0  0  0  0  0  0  0  0  0  0  0  0
   10.5783   -2.0508    0.0000 H   0  0  0  0  0  0  0  0  0  0  0  0
    9.8530    2.3330    0.0000 H   0  0  0  0  0  0  0  0  0  0  0  0
    8.0780   -0.9658    0.0000 H   0  0  0  0  0  0  0  0  0  0  0  0
   13.8575   -2.3926    0.0000 H   0  0  0  0  0  0  0  0  0  0  0  0
   14.2038    3.7984    0.0000 H   0  0  0  0  0  0  0  0  0  0  0  0
   15.6068    1.3684    0.0000 H   0  0  0  0  0  0  0  0  0  0  0  0
   11.2429   -3.5715    0.0000 H   0  0  0  0  0  0  0  0  0  0  0  0
   12.8936   -3.7436    0.0000 H   0  0  0  0  0  0  0  0  0  0  0  0
   12.7818    3.7153    0.0000 H   0  0  0  0  0  0  0  0  0  0  0  0
   11.9348    3.4884    0.0000 H   0  0  0  0  0  0  0  0  0  0  0  0
   12.1618    2.6414    0.0000 H   0  0  0  0  0  0  0  0  0  0  0  0
   13.5838    0.1784    0.0000 H   0  0  0  0  0  0  0  0  0  0  0  0
   14.2038   -0.4416    0.0000 H   0  0  0  0  0  0  0  0  0  0  0  0
   14.8238    0.1784    0.0000 H   0  0  0  0  0  0  0  0  0  0  0  0
   15.6068    2.9884    0.0000 H   0  0  0  0  0  0  0  0  0  0  0  0
  1 23  2  0  0  0  0
  2 10  1  0  0  0  0
  2 11  1  0  0  0  0
  2 14  1  0  0  0  0
  3 12  1  0  0  0  0
  3 13  1  0  0  0  0
  3 15  1  0  0  0  0
  4 16  1  0  0  0  0
  4 17  1  0  0  0  0
  4 18  1  0  0  0  0
  5 16  1  0  0  0  0
  5 21  1  0  0  0  0
  5 23  1  0  0  0  0
  6 16  2  0  0  0  0
  6 24  1  0  0  0  0
  7 17  2  0  0  0  0
  7 31  1  0  0  0  0
  8 25  1  0  0  0  0
  8 31  1  0  0  0  0
  8 58  1  0  0  0  0
  9 31  2  0  0  0  0
  9 32  1  0  0  0  0
 10 12  1  0  0  0  0
 10 41  1  0  0  0  0
 10 42  1  0  0  0  0
 11 13  1  0  0  0  0
 11 43  1  0  0  0  0
 11 44  1  0  0  0  0
 12 45  1  0  0  0  0
 12 46  1  0  0  0  0
 13 47  1  0  0  0  0
 13 48  1  0  0  0  0
 14 19  2  0  0  0  0
 14 20  1  0  0  0  0
 15 49  1  0  0  0  0
 15 50  1  0  0  0  0
 15 51  1  0  0  0  0
 17 22  1  0  0  0  0
 18 24  1  0  0  0  0
 18 30  2  0  0  0  0
 19 26  1  0  0  0  0
 19 52  1  0  0  0  0
 20 27  2  0  0  0  0
 20 53  1  0  0  0  0
 21 28  2  0  0  0  0
 21 29  1  0  0  0  0
 22 23  1  0  0  0  0
 22 32  2  0  0  0  0
 24 33  2  0  0  0  0
 25 26  2  0  0  0  0
 25 27  1  0  0  0  0
 26 54  1  0  0  0  0
 27 55  1  0  0  0  0
 28 34  1  0  0  0  0
 28 38  1  0  0  0  0
 29 35  2  0  0  0  0
 29 39  1  0  0  0  0
 30 36  1  0  0  0  0
 30 56  1  0  0  0  0
 32 57  1  0  0  0  0
 33 37  1  0  0  0  0
 33 59  1  0  0  0  0
 34 40  2  0  0  0  0
 34 60  1  0  0  0  0
 35 40  1  0  0  0  0
 35 61  1  0  0  0  0
 36 37  2  0  0  0  0
 36 62  1  0  0  0  0
 37 63  1  0  0  0  0
 38 64  1  0  0  0  0
 38 65  1  0  0  0  0
 38 66  1  0  0  0  0
 39 67  1  0  0  0  0
 39 68  1  0  0  0  0
 39 69  1  0  0  0  0
 40 70  1  0  0  0  0
M  END
> <PUBCHEM_COMPOUND_CID>
11785878

> <PUBCHEM_COMPOUND_CANONICALIZED>
1

> <PUBCHEM_CACTVS_COMPLEXITY>
879

> <PUBCHEM_CACTVS_HBOND_ACCEPTOR>
7

> <PUBCHEM_CACTVS_HBOND_DONOR>
1

> <PUBCHEM_CACTVS_ROTATABLE_BOND>
4

> <PUBCHEM_CACTVS_SUBSKEYS>
AAADceB74AAAAAAAAAAAAAAAAAAAAWAAAAA8ePECAAAAAFix/AAAHgAQAAAADAjBngQ/8LfMEACoAzd3dACCgC01EqAJ2CE4dNiIaOrA2dGUJIholQLIyOcQgEAOAACCAAACACAAAQQAAAQAQAAAAAAAAA==

> <PUBCHEM_IUPAC_OPENEYE_NAME>
9-(2,6-dimethylphenyl)-4-[4-(4-methylpiperazin-1-yl)anilino]-1,3,5,9,11-pentazatetracyclo[8.7.0.02,7.012,17]heptadeca-2,4,6,10,12,14,16-heptaen-8-one

> <PUBCHEM_IUPAC_CAS_NAME>
9-(2,6-dimethylphenyl)-4-[4-(4-methyl-1-piperazinyl)anilino]-1,3,5,9,11-pentazatetracyclo[8.7.0.02,7.012,17]heptadeca-2,4,6,10,12,14,16-heptaen-8-one

> <PUBCHEM_IUPAC_NAME_MARKUP>
9-(2,6-dimethylphenyl)-4-[4-(4-methylpiperazin-1-yl)anilino]-1,3,5,9,11-pentazatetracyclo[8.7.0.0<SUP>2,7</SUP>.0<SUP>12,17</SUP>]heptadeca-2,4,6,10,12,14,16-heptaen-8-one

> <PUBCHEM_IUPAC_NAME>
9-(2,6-dimethylphenyl)-4-[4-(4-methylpiperazin-1-yl)anilino]-1,3,5,9,11-pentazatetracyclo[8.7.0.02,7.012,17]heptadeca-2,4,6,10,12,14,16-heptaen-8-one

> <PUBCHEM_IUPAC_SYSTEMATIC_NAME>
9-(2,6-dimethylphenyl)-4-[[4-(4-methylpiperazin-1-yl)phenyl]amino]-1,3,5,9,11-pentazatetracyclo[8.7.0.02,7.012,17]heptadeca-2,4,6,10,12,14,16-heptaen-8-one

> <PUBCHEM_IUPAC_TRADITIONAL_NAME>
9-(2,6-dimethylphenyl)-4-[4-(4-methylpiperazino)anilino]-1,3,5,9,11-pentazatetracyclo[8.7.0.02,7.012,17]heptadeca-2,4,6,10,12,14,16-heptaen-8-one

> <PUBCHEM_IUPAC_INCHI>
InChI=1S/C31H30N8O/c1-20-7-6-8-21(2)27(20)39-29(40)24-19-32-30(35-28(24)38-26-10-5-4-9-25(26)34-31(38)39)33-22-11-13-23(14-12-22)37-17-15-36(3)16-18-37/h4-14,19H,15-18H2,1-3H3,(H,32,33,35)

> <PUBCHEM_IUPAC_INCHIKEY>
BHJJWVDKNXABFS-UHFFFAOYSA-N

> <PUBCHEM_XLOGP3_AA>
5.2

> <PUBCHEM_EXACT_MASS>
530.25425761

> <PUBCHEM_MOLECULAR_FORMULA>
C31H30N8O

> <PUBCHEM_MOLECULAR_WEIGHT>
530.6

> <PUBCHEM_SMILES>
CC1=C(C(=CC=C1)C)N2C(=O)C3=CN=C(N=C3N4C2=NC5=CC=CC=C54)NC6=CC=C(C=C6)N7CCN(CC7)C

> <PUBCHEM_OPENEYE_CAN_SMILES>
CC1=C(C(=CC=C1)C)N2C(=O)C3=CN=C(N=C3N4C2=NC5=CC=CC=C54)NC6=CC=C(C=C6)N7CCN(CC7)C

> <PUBCHEM_OPENEYE_ISO_SMILES>
CC1=C(C(=CC=C1)C)N2C(=O)C3=CN=C(N=C3N4C2=NC5=CC=CC=C54)NC6=CC=C(C=C6)N7CCN(CC7)C

> <PUBCHEM_CACTVS_TPSA>
82.4

> <PUBCHEM_MONOISOTOPIC_WEIGHT>
530.25425761

> <PUBCHEM_TOTAL_CHARGE>
0

> <PUBCHEM_HEAVY_ATOM_COUNT>
40

> <PUBCHEM_ATOM_DEF_STEREO_COUNT>
0

> <PUBCHEM_ATOM_UDEF_STEREO_COUNT>
0

> <PUBCHEM_BOND_DEF_STEREO_COUNT>
0

> <PUBCHEM_BOND_UDEF_STEREO_COUNT>
0

> <PUBCHEM_ISOTOPIC_ATOM_COUNT>
0

> <PUBCHEM_COMPONENT_COUNT>
1

> <PUBCHEM_CACTVS_TAUTO_COUNT>
-1

> <PUBCHEM_COORDINATE_TYPE>
1
5
255

> <PUBCHEM_BONDANNOTATIONS>
14  19  8
14  20  8
17  22  8
18  24  8
18  30  8
19  26  8
20  27  8
21  28  8
21  29  8
22  23  8
22  32  8
24  33  8
25  26  8
25  27  8
28  34  8
29  35  8
30  36  8
33  37  8
34  40  8
35  40  8
36  37  8
4  16  8
4  17  8
4  18  8
5  16  8
5  23  8
6  16  8
6  24  8
7  17  8
7  31  8
9  31  8
9  32  8

$$$$
