44364045
  -OEChem-03202505452D

 76 84  0     1  0  0  0  0  0999 V2000
    3.3234   -2.9317    0.0000 O   0  0  0  0  0  0  0  0  0  0  0  0
    2.3047    0.8702    0.0000 O   0  0  0  0  0  0  0  0  0  0  0  0
   10.0678   -3.7968    0.0000 O   0  0  0  0  0  0  0  0  0  0  0  0
   11.2913   -0.4351    0.0000 O   0  0  0  0  0  0  0  0  0  0  0  0
    6.0162    1.2641    0.0000 N   0  0  0  0  0  0  0  0  0  0  0  0
    6.6142   -1.7005    0.0000 N   0  0  0  0  0  0  0  0  0  0  0  0
    7.2982    0.1789    0.0000 N   0  0  0  0  0  0  0  0  0  0  0  0
   10.9589   -2.2176    0.0000 N   0  0  0  0  0  0  0  0  0  0  0  0
    5.5384   -0.6844    0.0000 C   0  0  2  0  0  0  0  0  0  0  0  0
    5.2796    0.2815    0.0000 C   0  0  1  0  0  0  0  0  0  0  0  0
    4.2667   -1.4791    0.0000 C   0  0  3  0  0  0  0  0  0  0  0  0
    3.8479    0.0838    0.0000 C   0  0  3  0  0  0  0  0  0  0  0  0
    3.4896   -0.8497    0.0000 C   0  0  0  0  0  0  0  0  0  0  0  0
    7.5990   -1.5268    0.0000 C   0  0  0  0  0  0  0  0  0  0  0  0
    7.9410   -0.5871    0.0000 C   0  0  0  0  0  0  0  0  0  0  0  0
    4.2144   -2.4777    0.0000 C   0  0  0  0  0  0  0  0  0  0  0  0
    3.3033    0.9225    0.0000 C   0  0  0  0  0  0  0  0  0  0  0  0
    6.5162    2.1302    0.0000 C   0  0  0  0  0  0  0  0  0  0  0  0
    8.2562   -2.3350    0.0000 C   0  0  0  0  0  0  0  0  0  0  0  0
    8.9639   -0.3904    0.0000 C   0  0  0  0  0  0  0  0  0  0  0  0
    6.6412   -2.6939    0.0000 C   0  0  0  0  0  0  0  0  0  0  0  0
    7.9575    0.9226    0.0000 C   0  0  0  0  0  0  0  0  0  0  0  0
    7.5682   -3.0521    0.0000 C   0  0  0  0  0  0  0  0  0  0  0  0
    8.8978    0.6012    0.0000 C   0  0  0  0  0  0  0  0  0  0  0  0
    9.2833   -2.1620    0.0000 C   0  0  0  0  0  0  0  0  0  0  0  0
    9.6396   -1.1832    0.0000 C   0  0  0  0  0  0  0  0  0  0  0  0
    6.0162    2.9962    0.0000 C   0  0  0  0  0  0  0  0  0  0  0  0
    5.8253   -3.3311    0.0000 C   0  0  0  0  0  0  0  0  0  0  0  0
    7.7420    1.9352    0.0000 C   0  0  0  0  0  0  0  0  0  0  0  0
    7.7436   -4.0724    0.0000 C   0  0  0  0  0  0  0  0  0  0  0  0
    9.6880    1.2700    0.0000 C   0  0  0  0  0  0  0  0  0  0  0  0
   10.1009   -2.7974    0.0000 C   0  0  0  0  0  0  0  0  0  0  0  0
   10.6743   -1.2220    0.0000 C   0  0  0  0  0  0  0  0  0  0  0  0
    5.9770   -4.3551    0.0000 C   0  0  0  0  0  0  0  0  0  0  0  0
    8.5165    2.6220    0.0000 C   0  0  0  0  0  0  0  0  0  0  0  0
    6.9426   -4.7282    0.0000 C   0  0  0  0  0  0  0  0  0  0  0  0
    9.4960    2.2872    0.0000 C   0  0  0  0  0  0  0  0  0  0  0  0
    5.0162    2.9962    0.0000 C   0  0  0  0  0  0  0  0  0  0  0  0
    6.5162    3.8622    0.0000 C   0  0  0  0  0  0  0  0  0  0  0  0
    3.2710   -3.9303    0.0000 C   0  0  0  0  0  0  0  0  0  0  0  0
    1.7600    1.7088    0.0000 C   0  0  0  0  0  0  0  0  0  0  0  0
    4.5162    3.8622    0.0000 C   0  0  0  0  0  0  0  0  0  0  0  0
    6.0162    4.7282    0.0000 C   0  0  0  0  0  0  0  0  0  0  0  0
    5.0162    4.7282    0.0000 C   0  0  0  0  0  0  0  0  0  0  0  0
    5.7584   -1.5054    0.0000 H   0  0  0  0  0  0  0  0  0  0  0  0
    5.0596    1.1026    0.0000 H   0  0  0  0  0  0  0  0  0  0  0  0
    3.7003   -1.7312    0.0000 H   0  0  0  0  0  0  0  0  0  0  0  0
    3.2313    0.0190    0.0000 H   0  0  0  0  0  0  0  0  0  0  0  0
    3.1519   -1.3697    0.0000 H   0  0  0  0  0  0  0  0  0  0  0  0
    2.9371   -0.5683    0.0000 H   0  0  0  0  0  0  0  0  0  0  0  0
    4.8298   -2.4021    0.0000 H   0  0  0  0  0  0  0  0  0  0  0  0
    4.3956   -3.0706    0.0000 H   0  0  0  0  0  0  0  0  0  0  0  0
    3.1638    1.5266    0.0000 H   0  0  0  0  0  0  0  0  0  0  0  0
    3.8740    1.1648    0.0000 H   0  0  0  0  0  0  0  0  0  0  0  0
    6.9911    2.5287    0.0000 H   0  0  0  0  0  0  0  0  0  0  0  0
    6.9911    1.7316    0.0000 H   0  0  0  0  0  0  0  0  0  0  0  0
    5.2496   -3.1009    0.0000 H   0  0  0  0  0  0  0  0  0  0  0  0
    7.1531    2.1289    0.0000 H   0  0  0  0  0  0  0  0  0  0  0  0
    8.3244   -4.2892    0.0000 H   0  0  0  0  0  0  0  0  0  0  0  0
   10.2723    1.0627    0.0000 H   0  0  0  0  0  0  0  0  0  0  0  0
   11.5415   -2.4297    0.0000 H   0  0  0  0  0  0  0  0  0  0  0  0
    5.4928   -4.7423    0.0000 H   0  0  0  0  0  0  0  0  0  0  0  0
    8.3945    3.2299    0.0000 H   0  0  0  0  0  0  0  0  0  0  0  0
    7.0406   -5.3404    0.0000 H   0  0  0  0  0  0  0  0  0  0  0  0
    9.9646    2.6932    0.0000 H   0  0  0  0  0  0  0  0  0  0  0  0
    4.7062    2.4592    0.0000 H   0  0  0  0  0  0  0  0  0  0  0  0
    7.1362    3.8622    0.0000 H   0  0  0  0  0  0  0  0  0  0  0  0
    3.8902   -3.9628    0.0000 H   0  0  0  0  0  0  0  0  0  0  0  0
    3.2386   -4.5495    0.0000 H   0  0  0  0  0  0  0  0  0  0  0  0
    2.6519   -3.8979    0.0000 H   0  0  0  0  0  0  0  0  0  0  0  0
    1.2400    1.3712    0.0000 H   0  0  0  0  0  0  0  0  0  0  0  0
    1.4223    2.2288    0.0000 H   0  0  0  0  0  0  0  0  0  0  0  0
    2.2800    2.0465    0.0000 H   0  0  0  0  0  0  0  0  0  0  0  0
    3.8962    3.8622    0.0000 H   0  0  0  0  0  0  0  0  0  0  0  0
    6.3262    5.2652    0.0000 H   0  0  0  0  0  0  0  0  0  0  0  0
    4.7062    5.2652    0.0000 H   0  0  0  0  0  0  0  0  0  0  0  0
  1 16  1  0  0  0  0
  1 40  1  0  0  0  0
  2 17  1  0  0  0  0
  2 41  1  0  0  0  0
  3 32  2  0  0  0  0
  4 33  2  0  0  0  0
  5  9  1  0  0  0  0
  5 10  1  0  0  0  0
  5 18  1  0  0  0  0
  6  9  1  0  0  0  0
  6 14  1  0  0  0  0
  6 21  1  0  0  0  0
  7 10  1  0  0  0  0
  7 15  1  0  0  0  0
  7 22  1  0  0  0  0
  8 32  1  0  0  0  0
  8 33  1  0  0  0  0
  8 61  1  0  0  0  0
  9 11  1  0  0  0  0
  9 45  1  1  0  0  0
 10 12  1  0  0  0  0
 10 46  1  6  0  0  0
 11 13  1  0  0  0  0
 11 16  1  0  0  0  0
 11 47  1  0  0  0  0
 12 13  1  0  0  0  0
 12 17  1  0  0  0  0
 12 48  1  0  0  0  0
 13 49  1  0  0  0  0
 13 50  1  0  0  0  0
 14 15  2  0  0  0  0
 14 19  1  0  0  0  0
 15 20  1  0  0  0  0
 16 51  1  0  0  0  0
 16 52  1  0  0  0  0
 17 53  1  0  0  0  0
 17 54  1  0  0  0  0
 18 27  1  0  0  0  0
 18 55  1  0  0  0  0
 18 56  1  0  0  0  0
 19 23  1  0  0  0  0
 19 25  2  0  0  0  0
 20 24  1  0  0  0  0
 20 26  2  0  0  0  0
 21 23  1  0  0  0  0
 21 28  2  0  0  0  0
 22 24  1  0  0  0  0
 22 29  2  0  0  0  0
 23 30  2  0  0  0  0
 24 31  2  0  0  0  0
 25 26  1  0  0  0  0
 25 32  1  0  0  0  0
 26 33  1  0  0  0  0
 27 38  2  0  0  0  0
 27 39  1  0  0  0  0
 28 34  1  0  0  0  0
 28 57  1  0  0  0  0
 29 35  1  0  0  0  0
 29 58  1  0  0  0  0
 30 36  1  0  0  0  0
 30 59  1  0  0  0  0
 31 37  1  0  0  0  0
 31 60  1  0  0  0  0
 34 36  2  0  0  0  0
 34 62  1  0  0  0  0
 35 37  2  0  0  0  0
 35 63  1  0  0  0  0
 36 64  1  0  0  0  0
 37 65  1  0  0  0  0
 38 42  1  0  0  0  0
 38 66  1  0  0  0  0
 39 43  2  0  0  0  0
 39 67  1  0  0  0  0
 40 68  1  0  0  0  0
 40 69  1  0  0  0  0
 40 70  1  0  0  0  0
 41 71  1  0  0  0  0
 41 72  1  0  0  0  0
 41 73  1  0  0  0  0
 42 44  2  0  0  0  0
 42 74  1  0  0  0  0
 43 44  1  0  0  0  0
 43 75  1  0  0  0  0
 44 76  1  0  0  0  0
M  END
> <PUBCHEM_COMPOUND_CID>
44364045

> <PUBCHEM_COMPOUND_CANONICALIZED>
1

> <PUBCHEM_CACTVS_COMPLEXITY>
1060

> <PUBCHEM_CACTVS_HBOND_ACCEPTOR>
5

> <PUBCHEM_CACTVS_HBOND_DONOR>
1

> <PUBCHEM_CACTVS_ROTATABLE_BOND>
6

> <PUBCHEM_CACTVS_SUBSKEYS>
AAADcfB/uAAAAAAAAAAAAAAAAAAAAWLFgAA8YMGCBYAAAFix/gAAHgAQAAAADQjhngYzwPPMFACoAyVyVACCgCQlEiAI2CE4dNiIYPLAlZGUIQhuhCLIySeducqeyAACQAASACCQAASAACQAQAAAAAAAAA==

> <PUBCHEM_IUPAC_OPENEYE_NAME>
(2S,6R)-29-benzyl-3,5-bis(methoxymethyl)-1,7,17,29-tetrazaoctacyclo[12.12.2.12,6.07,28.08,13.015,19.020,27.021,26]nonacosa-8,10,12,14,19,21,23,25,27-nonaene-16,18-dione

> <PUBCHEM_IUPAC_CAS_NAME>
(2S,6R)-3,5-bis(methoxymethyl)-29-(phenylmethyl)-1,7,17,29-tetrazaoctacyclo[12.12.2.12,6.07,28.08,13.015,19.020,27.021,26]nonacosa-8,10,12,14,19,21,23,25,27-nonaene-16,18-dione

> <PUBCHEM_IUPAC_NAME_MARKUP>
(2<I>S</I>,6<I>R</I>)-29-benzyl-3,5-bis(methoxymethyl)-1,7,17,29-tetrazaoctacyclo[12.12.2.1<SUP>2,6</SUP>.0<SUP>7,28</SUP>.0<SUP>8,13</SUP>.0<SUP>15,19</SUP>.0<SUP>20,27</SUP>.0<SUP>21,26</SUP>]nonacosa-8,10,12,14,19,21,23,25,27-nonaene-16,18-dione

> <PUBCHEM_IUPAC_NAME>
(2S,6R)-29-benzyl-3,5-bis(methoxymethyl)-1,7,17,29-tetrazaoctacyclo[12.12.2.12,6.07,28.08,13.015,19.020,27.021,26]nonacosa-8,10,12,14,19,21,23,25,27-nonaene-16,18-dione

> <PUBCHEM_IUPAC_SYSTEMATIC_NAME>
(2S,6R)-3,5-bis(methoxymethyl)-29-(phenylmethyl)-1,7,17,29-tetrazaoctacyclo[12.12.2.12,6.07,28.08,13.015,19.020,27.021,26]nonacosa-8,10,12,14,19,21,23,25,27-nonaene-16,18-dione

> <PUBCHEM_IUPAC_TRADITIONAL_NAME>
(2S,6R)-29-benzyl-3,5-bis(methoxymethyl)-1,7,17,29-tetrazaoctacyclo[12.12.2.12,6.07,28.08,13.015,19.020,27.021,26]nonacosa-8,10,12,14,19,21,23,25,27-nonaene-16,18-quinone

> <PUBCHEM_IUPAC_INCHI>
InChI=1S/C36H32N4O4/c1-43-18-21-16-22(19-44-2)36-38(17-20-10-4-3-5-11-20)35(21)39-25-14-8-6-12-23(25)27-29-30(34(42)37-33(29)41)28-24-13-7-9-15-26(24)40(36)32(28)31(27)39/h3-15,21-22,35-36H,16-19H2,1-2H3,(H,37,41,42)/t21?,22?,35-,36+

> <PUBCHEM_IUPAC_INCHIKEY>
PXQOOUNOEKBFMN-JDLAPZJJSA-N

> <PUBCHEM_XLOGP3_AA>
5.3

> <PUBCHEM_EXACT_MASS>
584.24235551

> <PUBCHEM_MOLECULAR_FORMULA>
C36H32N4O4

> <PUBCHEM_MOLECULAR_WEIGHT>
584.7

> <PUBCHEM_SMILES>
COCC1CC([C@H]2N([C@@H]1N3C4=CC=CC=C4C5=C6C(=C7C8=CC=CC=C8N2C7=C53)C(=O)NC6=O)CC9=CC=CC=C9)COC

> <PUBCHEM_OPENEYE_CAN_SMILES>
COCC1CC(C2N(C1N3C4=CC=CC=C4C5=C6C(=C7C8=CC=CC=C8N2C7=C53)C(=O)NC6=O)CC9=CC=CC=C9)COC

> <PUBCHEM_OPENEYE_ISO_SMILES>
COCC1CC([C@H]2N([C@@H]1N3C4=CC=CC=C4C5=C6C(=C7C8=CC=CC=C8N2C7=C53)C(=O)NC6=O)CC9=CC=CC=C9)COC

> <PUBCHEM_CACTVS_TPSA>
77.7

> <PUBCHEM_MONOISOTOPIC_WEIGHT>
584.24235551

> <PUBCHEM_TOTAL_CHARGE>
0

> <PUBCHEM_HEAVY_ATOM_COUNT>
44

> <PUBCHEM_ATOM_DEF_STEREO_COUNT>
2

> <PUBCHEM_ATOM_UDEF_STEREO_COUNT>
2

> <PUBCHEM_BOND_DEF_STEREO_COUNT>
0

> <PUBCHEM_BOND_UDEF_STEREO_COUNT>
0

> <PUBCHEM_ISOTOPIC_ATOM_COUNT>
0

> <PUBCHEM_COMPONENT_COUNT>
1

> <PUBCHEM_CACTVS_TAUTO_COUNT>
-1

> <PUBCHEM_COORDINATE_TYPE>
1
5
255

> <PUBCHEM_BONDANNOTATIONS>
10  46  6
11  16  3
12  17  3
14  15  8
14  19  8
15  20  8
19  23  8
19  25  8
20  24  8
20  26  8
21  23  8
21  28  8
22  24  8
22  29  8
23  30  8
24  31  8
25  26  8
27  38  8
27  39  8
28  34  8
29  35  8
30  36  8
31  37  8
34  36  8
35  37  8
38  42  8
39  43  8
42  44  8
43  44  8
6  14  8
6  21  8
7  15  8
7  22  8
9  45  5

$$$$
