11383888
  -OEChem-03202503502D

 43 46  0     0  0  0  0  0  0999 V2000
    2.8660    5.4470    0.0000 Cl  0  0  0  0  0  0  0  0  0  0  0  0
    7.1962   -0.0530    0.0000 F   0  0  0  0  0  0  0  0  0  0  0  0
    3.7320    0.9470    0.0000 O   0  0  0  0  0  0  0  0  0  0  0  0
    7.2764   -4.8577    0.0000 N   0  0  0  0  0  0  0  0  0  0  0  0
    7.8600   -4.0530    0.0000 N   0  0  0  0  0  0  0  0  0  0  0  0
    5.4641    0.9470    0.0000 N   0  0  0  0  0  0  0  0  0  0  0  0
    7.5870   -2.2977    0.0000 N   0  0  0  0  0  0  0  0  0  0  0  0
    4.5981    2.4470    0.0000 N   0  0  0  0  0  0  0  0  0  0  0  0
    6.3301   -3.5530    0.0000 C   0  0  0  0  0  0  0  0  0  0  0  0
    5.4641   -3.0530    0.0000 C   0  0  0  0  0  0  0  0  0  0  0  0
    6.3301   -4.5530    0.0000 C   0  0  0  0  0  0  0  0  0  0  0  0
    5.4641   -2.0530    0.0000 C   0  0  0  0  0  0  0  0  0  0  0  0
    7.2764   -3.2482    0.0000 C   0  0  0  0  0  0  0  0  0  0  0  0
    4.5981   -3.5530    0.0000 C   0  0  0  0  0  0  0  0  0  0  0  0
    5.4641   -5.0530    0.0000 C   0  0  0  0  0  0  0  0  0  0  0  0
    6.3301   -1.5530    0.0000 C   0  0  0  0  0  0  0  0  0  0  0  0
    4.5981   -1.5530    0.0000 C   0  0  0  0  0  0  0  0  0  0  0  0
    4.5981   -4.5530    0.0000 C   0  0  0  0  0  0  0  0  0  0  0  0
    5.4641   -0.0530    0.0000 C   0  0  0  0  0  0  0  0  0  0  0  0
    6.3301   -0.5530    0.0000 C   0  0  0  0  0  0  0  0  0  0  0  0
    4.5981   -0.5530    0.0000 C   0  0  0  0  0  0  0  0  0  0  0  0
    4.5981    1.4470    0.0000 C   0  0  0  0  0  0  0  0  0  0  0  0
    3.7320    2.9470    0.0000 C   0  0  0  0  0  0  0  0  0  0  0  0
    3.7320    3.9470    0.0000 C   0  0  0  0  0  0  0  0  0  0  0  0
    2.8660    2.4470    0.0000 C   0  0  0  0  0  0  0  0  0  0  0  0
    2.8660    4.4470    0.0000 C   0  0  0  0  0  0  0  0  0  0  0  0
    2.0000    2.9470    0.0000 C   0  0  0  0  0  0  0  0  0  0  0  0
    2.0000    3.9470    0.0000 C   0  0  0  0  0  0  0  0  0  0  0  0
    4.0611   -3.2430    0.0000 H   0  0  0  0  0  0  0  0  0  0  0  0
    5.4641   -5.6730    0.0000 H   0  0  0  0  0  0  0  0  0  0  0  0
    6.8671   -1.8630    0.0000 H   0  0  0  0  0  0  0  0  0  0  0  0
    4.0611   -1.8630    0.0000 H   0  0  0  0  0  0  0  0  0  0  0  0
    4.0611   -4.8630    0.0000 H   0  0  0  0  0  0  0  0  0  0  0  0
    7.4690   -5.4470    0.0000 H   0  0  0  0  0  0  0  0  0  0  0  0
    4.0611   -0.2430    0.0000 H   0  0  0  0  0  0  0  0  0  0  0  0
    6.0010    1.2570    0.0000 H   0  0  0  0  0  0  0  0  0  0  0  0
    8.1937   -2.1699    0.0000 H   0  0  0  0  0  0  0  0  0  0  0  0
    7.1730   -1.8362    0.0000 H   0  0  0  0  0  0  0  0  0  0  0  0
    5.1350    2.7570    0.0000 H   0  0  0  0  0  0  0  0  0  0  0  0
    4.2690    4.2570    0.0000 H   0  0  0  0  0  0  0  0  0  0  0  0
    2.8660    1.8270    0.0000 H   0  0  0  0  0  0  0  0  0  0  0  0
    1.4631    2.6370    0.0000 H   0  0  0  0  0  0  0  0  0  0  0  0
    1.4631    4.2570    0.0000 H   0  0  0  0  0  0  0  0  0  0  0  0
  1 26  1  0  0  0  0
  2 20  1  0  0  0  0
  3 22  2  0  0  0  0
  4  5  1  0  0  0  0
  4 11  1  0  0  0  0
  4 34  1  0  0  0  0
  5 13  2  0  0  0  0
  6 19  1  0  0  0  0
  6 22  1  0  0  0  0
  6 36  1  0  0  0  0
  7 13  1  0  0  0  0
  7 37  1  0  0  0  0
  7 38  1  0  0  0  0
  8 22  1  0  0  0  0
  8 23  1  0  0  0  0
  8 39  1  0  0  0  0
  9 10  2  0  0  0  0
  9 11  1  0  0  0  0
  9 13  1  0  0  0  0
 10 12  1  0  0  0  0
 10 14  1  0  0  0  0
 11 15  2  0  0  0  0
 12 16  2  0  0  0  0
 12 17  1  0  0  0  0
 14 18  2  0  0  0  0
 14 29  1  0  0  0  0
 15 18  1  0  0  0  0
 15 30  1  0  0  0  0
 16 20  1  0  0  0  0
 16 31  1  0  0  0  0
 17 21  2  0  0  0  0
 17 32  1  0  0  0  0
 18 33  1  0  0  0  0
 19 20  2  0  0  0  0
 19 21  1  0  0  0  0
 21 35  1  0  0  0  0
 23 24  2  0  0  0  0
 23 25  1  0  0  0  0
 24 26  1  0  0  0  0
 24 40  1  0  0  0  0
 25 27  2  0  0  0  0
 25 41  1  0  0  0  0
 26 28  2  0  0  0  0
 27 28  1  0  0  0  0
 27 42  1  0  0  0  0
 28 43  1  0  0  0  0
M  END
> <PUBCHEM_COMPOUND_CID>
11383888

> <PUBCHEM_COMPOUND_CANONICALIZED>
1

> <PUBCHEM_CACTVS_COMPLEXITY>
555

> <PUBCHEM_CACTVS_HBOND_ACCEPTOR>
4

> <PUBCHEM_CACTVS_HBOND_DONOR>
4

> <PUBCHEM_CACTVS_ROTATABLE_BOND>
3

> <PUBCHEM_CACTVS_SUBSKEYS>
AAADccB7oQAEAAAAAAAAAAAAAAAAAWAAAAAwYMAAAAAAAFgB9AAAHwIYAAAADAqBHigx8PLjAACqAyZicACSBAIhBwAcuSAwZpiIIKLB09GEpAh4nAJIyCcQgMAOiAAAQAISAAAQAACABCQAAAAAAAAAAA==

> <PUBCHEM_IUPAC_OPENEYE_NAME>
1-[4-(3-amino-1H-indazol-4-yl)-2-fluoro-phenyl]-3-(3-chlorophenyl)urea

> <PUBCHEM_IUPAC_CAS_NAME>
1-[4-(3-amino-1H-indazol-4-yl)-2-fluorophenyl]-3-(3-chlorophenyl)urea

> <PUBCHEM_IUPAC_NAME_MARKUP>
1-[4-(3-amino-1<I>H</I>-indazol-4-yl)-2-fluorophenyl]-3-(3-chlorophenyl)urea

> <PUBCHEM_IUPAC_NAME>
1-[4-(3-amino-1H-indazol-4-yl)-2-fluorophenyl]-3-(3-chlorophenyl)urea

> <PUBCHEM_IUPAC_SYSTEMATIC_NAME>
1-[4-(3-azanyl-1H-indazol-4-yl)-2-fluoranyl-phenyl]-3-(3-chlorophenyl)urea

> <PUBCHEM_IUPAC_TRADITIONAL_NAME>
1-[4-(3-amino-1H-indazol-4-yl)-2-fluoro-phenyl]-3-(3-chlorophenyl)urea

> <PUBCHEM_IUPAC_INCHI>
InChI=1S/C20H15ClFN5O/c21-12-3-1-4-13(10-12)24-20(28)25-16-8-7-11(9-15(16)22)14-5-2-6-17-18(14)19(23)27-26-17/h1-10H,(H3,23,26,27)(H2,24,25,28)

> <PUBCHEM_IUPAC_INCHIKEY>
NSKFXNDKPCVDIN-UHFFFAOYSA-N

> <PUBCHEM_XLOGP3_AA>
4.1

> <PUBCHEM_EXACT_MASS>
395.0949160

> <PUBCHEM_MOLECULAR_FORMULA>
C20H15ClFN5O

> <PUBCHEM_MOLECULAR_WEIGHT>
395.8

> <PUBCHEM_SMILES>
C1=CC(=CC(=C1)Cl)NC(=O)NC2=C(C=C(C=C2)C3=C4C(=CC=C3)NN=C4N)F

> <PUBCHEM_OPENEYE_CAN_SMILES>
C1=CC(=CC(=C1)Cl)NC(=O)NC2=C(C=C(C=C2)C3=C4C(=CC=C3)NN=C4N)F

> <PUBCHEM_OPENEYE_ISO_SMILES>
C1=CC(=CC(=C1)Cl)NC(=O)NC2=C(C=C(C=C2)C3=C4C(=CC=C3)NN=C4N)F

> <PUBCHEM_CACTVS_TPSA>
95.8

> <PUBCHEM_MONOISOTOPIC_WEIGHT>
395.0949160

> <PUBCHEM_TOTAL_CHARGE>
0

> <PUBCHEM_HEAVY_ATOM_COUNT>
28

> <PUBCHEM_ATOM_DEF_STEREO_COUNT>
0

> <PUBCHEM_ATOM_UDEF_STEREO_COUNT>
0

> <PUBCHEM_BOND_DEF_STEREO_COUNT>
0

> <PUBCHEM_BOND_UDEF_STEREO_COUNT>
0

> <PUBCHEM_ISOTOPIC_ATOM_COUNT>
0

> <PUBCHEM_COMPONENT_COUNT>
1

> <PUBCHEM_CACTVS_TAUTO_COUNT>
-1

> <PUBCHEM_COORDINATE_TYPE>
1
5
255

> <PUBCHEM_BONDANNOTATIONS>
10  14  8
11  15  8
12  16  8
12  17  8
14  18  8
15  18  8
16  20  8
17  21  8
19  20  8
19  21  8
23  24  8
23  25  8
24  26  8
25  27  8
26  28  8
27  28  8
4  11  8
4  5  8
5  13  8
9  10  8
9  11  8
9  13  8

$$$$
