49830475
  -OEChem-03202502482D

 48 52  0     0  0  0  0  0  0999 V2000
   12.8234    3.5788    0.0000 Cl  0  0  0  0  0  0  0  0  0  0  0  0
   12.2486   -0.9676    0.0000 O   0  0  0  0  0  0  0  0  0  0  0  0
    5.1646   -0.8483    0.0000 N   0  0  0  0  0  0  0  0  0  0  0  0
   10.2916   -2.9895    0.0000 N   0  0  0  0  0  0  0  0  0  0  0  0
   10.8752   -2.1848    0.0000 N   0  0  0  0  0  0  0  0  0  0  0  0
   10.6022   -0.4295    0.0000 N   0  0  0  0  0  0  0  0  0  0  0  0
    6.6428   -0.1902    0.0000 N   0  0  0  0  0  0  0  0  0  0  0  0
    5.6646    0.0177    0.0000 N   0  0  0  0  0  0  0  0  0  0  0  0
    9.3454   -1.6848    0.0000 C   0  0  0  0  0  0  0  0  0  0  0  0
    9.3454   -2.6848    0.0000 C   0  0  0  0  0  0  0  0  0  0  0  0
    7.6133   -1.6848    0.0000 C   0  0  0  0  0  0  0  0  0  0  0  0
    8.4793   -1.1848    0.0000 C   0  0  0  0  0  0  0  0  0  0  0  0
   10.2916   -1.3800    0.0000 C   0  0  0  0  0  0  0  0  0  0  0  0
    6.7473   -1.1848    0.0000 C   0  0  0  0  0  0  0  0  0  0  0  0
    8.4793   -3.1848    0.0000 C   0  0  0  0  0  0  0  0  0  0  0  0
    7.6133   -2.6848    0.0000 C   0  0  0  0  0  0  0  0  0  0  0  0
    4.1701   -0.9529    0.0000 C   0  0  0  0  0  0  0  0  0  0  0  0
    5.8338   -1.5915    0.0000 C   0  0  0  0  0  0  0  0  0  0  0  0
    3.5823   -0.1439    0.0000 C   0  0  0  0  0  0  0  0  0  0  0  0
   11.5808   -0.2233    0.0000 C   0  0  0  0  0  0  0  0  0  0  0  0
    3.9890    0.7697    0.0000 C   0  0  0  0  0  0  0  0  0  0  0  0
    2.5878   -0.2484    0.0000 C   0  0  0  0  0  0  0  0  0  0  0  0
   11.8914    0.7272    0.0000 C   0  0  0  0  0  0  0  0  0  0  0  0
    3.4013    1.5787    0.0000 C   0  0  0  0  0  0  0  0  0  0  0  0
    2.0000    0.5606    0.0000 C   0  0  0  0  0  0  0  0  0  0  0  0
    2.4067    1.4742    0.0000 C   0  0  0  0  0  0  0  0  0  0  0  0
   11.2236    1.4715    0.0000 C   0  0  0  0  0  0  0  0  0  0  0  0
   12.8699    0.9335    0.0000 C   0  0  0  0  0  0  0  0  0  0  0  0
   11.5342    2.4221    0.0000 C   0  0  0  0  0  0  0  0  0  0  0  0
   13.1806    1.8840    0.0000 C   0  0  0  0  0  0  0  0  0  0  0  0
   12.5127    2.6283    0.0000 C   0  0  0  0  0  0  0  0  0  0  0  0
    8.4793   -0.5647    0.0000 H   0  0  0  0  0  0  0  0  0  0  0  0
    8.4793   -3.8048    0.0000 H   0  0  0  0  0  0  0  0  0  0  0  0
    7.0764   -2.9947    0.0000 H   0  0  0  0  0  0  0  0  0  0  0  0
    3.6128   -1.2247    0.0000 H   0  0  0  0  0  0  0  0  0  0  0  0
    4.3410   -1.5488    0.0000 H   0  0  0  0  0  0  0  0  0  0  0  0
    5.7048   -2.1979    0.0000 H   0  0  0  0  0  0  0  0  0  0  0  0
   10.4842   -3.5788    0.0000 H   0  0  0  0  0  0  0  0  0  0  0  0
   10.1882    0.0320    0.0000 H   0  0  0  0  0  0  0  0  0  0  0  0
    4.6056    0.8345    0.0000 H   0  0  0  0  0  0  0  0  0  0  0  0
    2.3356   -0.8148    0.0000 H   0  0  0  0  0  0  0  0  0  0  0  0
    3.6534    2.1451    0.0000 H   0  0  0  0  0  0  0  0  0  0  0  0
    1.3834    0.4958    0.0000 H   0  0  0  0  0  0  0  0  0  0  0  0
    2.0423    1.9758    0.0000 H   0  0  0  0  0  0  0  0  0  0  0  0
   10.6169    1.3437    0.0000 H   0  0  0  0  0  0  0  0  0  0  0  0
   13.2840    0.4720    0.0000 H   0  0  0  0  0  0  0  0  0  0  0  0
   11.1202    2.8835    0.0000 H   0  0  0  0  0  0  0  0  0  0  0  0
   13.7873    2.0118    0.0000 H   0  0  0  0  0  0  0  0  0  0  0  0
  1 31  1  0  0  0  0
  2 20  2  0  0  0  0
  3  8  1  0  0  0  0
  3 17  1  0  0  0  0
  3 18  1  0  0  0  0
  4  5  1  0  0  0  0
  4 10  1  0  0  0  0
  4 38  1  0  0  0  0
  5 13  2  0  0  0  0
  6 13  1  0  0  0  0
  6 20  1  0  0  0  0
  6 39  1  0  0  0  0
  7  8  2  0  0  0  0
  7 14  1  0  0  0  0
  9 10  2  0  0  0  0
  9 12  1  0  0  0  0
  9 13  1  0  0  0  0
 10 15  1  0  0  0  0
 11 12  2  0  0  0  0
 11 14  1  0  0  0  0
 11 16  1  0  0  0  0
 12 32  1  0  0  0  0
 14 18  2  0  0  0  0
 15 16  2  0  0  0  0
 15 33  1  0  0  0  0
 16 34  1  0  0  0  0
 17 19  1  0  0  0  0
 17 35  1  0  0  0  0
 17 36  1  0  0  0  0
 18 37  1  0  0  0  0
 19 21  2  0  0  0  0
 19 22  1  0  0  0  0
 20 23  1  0  0  0  0
 21 24  1  0  0  0  0
 21 40  1  0  0  0  0
 22 25  2  0  0  0  0
 22 41  1  0  0  0  0
 23 27  2  0  0  0  0
 23 28  1  0  0  0  0
 24 26  2  0  0  0  0
 24 42  1  0  0  0  0
 25 26  1  0  0  0  0
 25 43  1  0  0  0  0
 26 44  1  0  0  0  0
 27 29  1  0  0  0  0
 27 45  1  0  0  0  0
 28 30  2  0  0  0  0
 28 46  1  0  0  0  0
 29 31  2  0  0  0  0
 29 47  1  0  0  0  0
 30 31  1  0  0  0  0
 30 48  1  0  0  0  0
M  END
> <PUBCHEM_COMPOUND_CID>
49830475

> <PUBCHEM_COMPOUND_CANONICALIZED>
1

> <PUBCHEM_CACTVS_COMPLEXITY>
609

> <PUBCHEM_CACTVS_HBOND_ACCEPTOR>
4

> <PUBCHEM_CACTVS_HBOND_DONOR>
2

> <PUBCHEM_CACTVS_ROTATABLE_BOND>
5

> <PUBCHEM_CACTVS_SUBSKEYS>
AAADceB7oAAEAAAAAAAAAAAAAAAAAWLAAAAwYMAAAAAAAFgB/AAAHgIYAAAADArBniQ98PLrAACqAzd3dACSBAY1lwAd+SE4dtiIYLLB39GUpQhwnQLIyYcYiMCODAACAAACAAAYAAQAAAQAAAAAAAAAAA==

> <PUBCHEM_IUPAC_OPENEYE_NAME>
N-[5-(1-benzyltriazol-4-yl)-1H-indazol-3-yl]-4-chloro-benzamide

> <PUBCHEM_IUPAC_CAS_NAME>
4-chloro-N-[5-[1-(phenylmethyl)-4-triazolyl]-1H-indazol-3-yl]benzamide

> <PUBCHEM_IUPAC_NAME_MARKUP>
<I>N</I>-[5-(1-benzyltriazol-4-yl)-1<I>H</I>-indazol-3-yl]-4-chlorobenzamide

> <PUBCHEM_IUPAC_NAME>
N-[5-(1-benzyltriazol-4-yl)-1H-indazol-3-yl]-4-chlorobenzamide

> <PUBCHEM_IUPAC_SYSTEMATIC_NAME>
4-chloranyl-N-[5-[1-(phenylmethyl)-1,2,3-triazol-4-yl]-1H-indazol-3-yl]benzamide

> <PUBCHEM_IUPAC_TRADITIONAL_NAME>
N-[5-(1-benzyltriazol-4-yl)-1H-indazol-3-yl]-4-chloro-benzamide

> <PUBCHEM_IUPAC_INCHI>
InChI=1S/C23H17ClN6O/c24-18-9-6-16(7-10-18)23(31)25-22-19-12-17(8-11-20(19)26-28-22)21-14-30(29-27-21)13-15-4-2-1-3-5-15/h1-12,14H,13H2,(H2,25,26,28,31)

> <PUBCHEM_IUPAC_INCHIKEY>
QATMNAAQTUISJK-UHFFFAOYSA-N

> <PUBCHEM_XLOGP3_AA>
4.4

> <PUBCHEM_EXACT_MASS>
428.1152369

> <PUBCHEM_MOLECULAR_FORMULA>
C23H17ClN6O

> <PUBCHEM_MOLECULAR_WEIGHT>
428.9

> <PUBCHEM_SMILES>
C1=CC=C(C=C1)CN2C=C(N=N2)C3=CC4=C(C=C3)NN=C4NC(=O)C5=CC=C(C=C5)Cl

> <PUBCHEM_OPENEYE_CAN_SMILES>
C1=CC=C(C=C1)CN2C=C(N=N2)C3=CC4=C(C=C3)NN=C4NC(=O)C5=CC=C(C=C5)Cl

> <PUBCHEM_OPENEYE_ISO_SMILES>
C1=CC=C(C=C1)CN2C=C(N=N2)C3=CC4=C(C=C3)NN=C4NC(=O)C5=CC=C(C=C5)Cl

> <PUBCHEM_CACTVS_TPSA>
88.5

> <PUBCHEM_MONOISOTOPIC_WEIGHT>
428.1152369

> <PUBCHEM_TOTAL_CHARGE>
0

> <PUBCHEM_HEAVY_ATOM_COUNT>
31

> <PUBCHEM_ATOM_DEF_STEREO_COUNT>
0

> <PUBCHEM_ATOM_UDEF_STEREO_COUNT>
0

> <PUBCHEM_BOND_DEF_STEREO_COUNT>
0

> <PUBCHEM_BOND_UDEF_STEREO_COUNT>
0

> <PUBCHEM_ISOTOPIC_ATOM_COUNT>
0

> <PUBCHEM_COMPONENT_COUNT>
1

> <PUBCHEM_CACTVS_TAUTO_COUNT>
-1

> <PUBCHEM_COORDINATE_TYPE>
1
5
255

> <PUBCHEM_BONDANNOTATIONS>
10  15  8
11  12  8
11  16  8
14  18  8
15  16  8
19  21  8
19  22  8
21  24  8
22  25  8
23  27  8
23  28  8
24  26  8
25  26  8
27  29  8
28  30  8
29  31  8
3  18  8
3  8  8
30  31  8
4  10  8
4  5  8
5  13  8
7  14  8
7  8  8
9  10  8
9  12  8
9  13  8

$$$$
