9981692
  -OEChem-03202501502D

 58 61  0     0  0  0  0  0  0999 V2000
    7.3179    3.2072    0.0000 O   0  0  0  0  0  0  0  0  0  0  0  0
    2.2263   -0.6552    0.0000 O   0  0  0  0  0  0  0  0  0  0  0  0
   12.3080    2.4183    0.0000 O   0  0  0  0  0  0  0  0  0  0  0  0
    2.6788   -2.6033    0.0000 O   0  0  0  0  0  0  0  0  0  0  0  0
   15.9863   -0.9684    0.0000 O   0  0  0  0  0  0  0  0  0  0  0  0
    8.2517    0.1156    0.0000 N   0  0  0  0  0  0  0  0  0  0  0  0
    8.7518    2.3062    0.0000 N   0  0  0  0  0  0  0  0  0  0  0  0
   12.8248    0.7652    0.0000 N   0  0  0  0  0  0  0  0  0  0  0  0
   15.4694    0.6847    0.0000 N   0  0  0  0  0  0  0  0  0  0  0  0
    7.3508    0.5495    0.0000 C   0  0  0  0  0  0  0  0  0  0  0  0
    9.1527    0.5495    0.0000 C   0  0  0  0  0  0  0  0  0  0  0  0
    7.1283    1.5244    0.0000 C   0  0  0  0  0  0  0  0  0  0  0  0
    9.3752    1.5244    0.0000 C   0  0  0  0  0  0  0  0  0  0  0  0
    5.6005    0.1287    0.0000 C   0  0  0  0  0  0  0  0  0  0  0  0
    6.5982   -0.1707    0.0000 C   0  0  0  0  0  0  0  0  0  0  0  0
    7.7518    2.3062    0.0000 C   0  0  0  0  0  0  0  0  0  0  0  0
   10.3657    1.8467    0.0000 C   0  0  0  0  0  0  0  0  0  0  0  0
    6.1378    1.8468    0.0000 C   0  0  0  0  0  0  0  0  0  0  0  0
   11.1348    1.1441    0.0000 C   0  0  0  0  0  0  0  0  0  0  0  0
    9.9053   -0.1707    0.0000 C   0  0  0  0  0  0  0  0  0  0  0  0
    5.3688    1.1442    0.0000 C   0  0  0  0  0  0  0  0  0  0  0  0
    4.8701   -0.5543    0.0000 C   0  0  0  0  0  0  0  0  0  0  0  0
   10.9030    0.1286    0.0000 C   0  0  0  0  0  0  0  0  0  0  0  0
   12.0892    1.4426    0.0000 C   0  0  0  0  0  0  0  0  0  0  0  0
    3.9134   -0.2632    0.0000 C   0  0  0  0  0  0  0  0  0  0  0  0
    5.0964   -1.5284    0.0000 C   0  0  0  0  0  0  0  0  0  0  0  0
   13.7793    1.0636    0.0000 C   0  0  0  0  0  0  0  0  0  0  0  0
    3.1830   -0.9462    0.0000 C   0  0  0  0  0  0  0  0  0  0  0  0
   14.5149    0.3863    0.0000 C   0  0  0  0  0  0  0  0  0  0  0  0
    4.3659   -2.2114    0.0000 C   0  0  0  0  0  0  0  0  0  0  0  0
    3.4092   -1.9203    0.0000 C   0  0  0  0  0  0  0  0  0  0  0  0
   16.2050    0.0074    0.0000 C   0  0  0  0  0  0  0  0  0  0  0  0
    2.0000    0.3189    0.0000 C   0  0  0  0  0  0  0  0  0  0  0  0
   17.1595    0.3058    0.0000 C   0  0  0  0  0  0  0  0  0  0  0  0
    8.2517   -0.5044    0.0000 H   0  0  0  0  0  0  0  0  0  0  0  0
    6.7432   -0.7735    0.0000 H   0  0  0  0  0  0  0  0  0  0  0  0
    9.0208    2.8648    0.0000 H   0  0  0  0  0  0  0  0  0  0  0  0
   10.4967    2.4527    0.0000 H   0  0  0  0  0  0  0  0  0  0  0  0
    6.0068    2.4528    0.0000 H   0  0  0  0  0  0  0  0  0  0  0  0
    9.7603   -0.7735    0.0000 H   0  0  0  0  0  0  0  0  0  0  0  0
    4.7770    1.3292    0.0000 H   0  0  0  0  0  0  0  0  0  0  0  0
   11.3558   -0.2948    0.0000 H   0  0  0  0  0  0  0  0  0  0  0  0
    3.7731    0.3407    0.0000 H   0  0  0  0  0  0  0  0  0  0  0  0
    5.6895   -1.7089    0.0000 H   0  0  0  0  0  0  0  0  0  0  0  0
   14.2721    1.4399    0.0000 H   0  0  0  0  0  0  0  0  0  0  0  0
   13.4943    1.6143    0.0000 H   0  0  0  0  0  0  0  0  0  0  0  0
   12.6892    0.1602    0.0000 H   0  0  0  0  0  0  0  0  0  0  0  0
   14.0222    0.0100    0.0000 H   0  0  0  0  0  0  0  0  0  0  0  0
   14.7999   -0.1643    0.0000 H   0  0  0  0  0  0  0  0  0  0  0  0
    4.5062   -2.8153    0.0000 H   0  0  0  0  0  0  0  0  0  0  0  0
   15.6050    1.2897    0.0000 H   0  0  0  0  0  0  0  0  0  0  0  0
    2.8191   -3.2072    0.0000 H   0  0  0  0  0  0  0  0  0  0  0  0
    2.6039    0.4592    0.0000 H   0  0  0  0  0  0  0  0  0  0  0  0
    1.8597    0.9228    0.0000 H   0  0  0  0  0  0  0  0  0  0  0  0
    1.3961    0.1786    0.0000 H   0  0  0  0  0  0  0  0  0  0  0  0
   17.3445   -0.2859    0.0000 H   0  0  0  0  0  0  0  0  0  0  0  0
   17.7512    0.4908    0.0000 H   0  0  0  0  0  0  0  0  0  0  0  0
   16.9744    0.8976    0.0000 H   0  0  0  0  0  0  0  0  0  0  0  0
  1 16  2  0  0  0  0
  2 28  1  0  0  0  0
  2 33  1  0  0  0  0
  3 24  2  0  0  0  0
  4 31  1  0  0  0  0
  4 52  1  0  0  0  0
  5 32  2  0  0  0  0
  6 10  1  0  0  0  0
  6 11  1  0  0  0  0
  6 35  1  0  0  0  0
  7 13  1  0  0  0  0
  7 16  1  0  0  0  0
  7 37  1  0  0  0  0
  8 24  1  0  0  0  0
  8 27  1  0  0  0  0
  8 47  1  0  0  0  0
  9 29  1  0  0  0  0
  9 32  1  0  0  0  0
  9 51  1  0  0  0  0
 10 12  2  0  0  0  0
 10 15  1  0  0  0  0
 11 13  2  0  0  0  0
 11 20  1  0  0  0  0
 12 16  1  0  0  0  0
 12 18  1  0  0  0  0
 13 17  1  0  0  0  0
 14 15  2  0  0  0  0
 14 21  1  0  0  0  0
 14 22  1  0  0  0  0
 15 36  1  0  0  0  0
 17 19  2  0  0  0  0
 17 38  1  0  0  0  0
 18 21  2  0  0  0  0
 18 39  1  0  0  0  0
 19 23  1  0  0  0  0
 19 24  1  0  0  0  0
 20 23  2  0  0  0  0
 20 40  1  0  0  0  0
 21 41  1  0  0  0  0
 22 25  2  0  0  0  0
 22 26  1  0  0  0  0
 23 42  1  0  0  0  0
 25 28  1  0  0  0  0
 25 43  1  0  0  0  0
 26 30  2  0  0  0  0
 26 44  1  0  0  0  0
 27 29  1  0  0  0  0
 27 45  1  0  0  0  0
 27 46  1  0  0  0  0
 28 31  2  0  0  0  0
 29 48  1  0  0  0  0
 29 49  1  0  0  0  0
 30 31  1  0  0  0  0
 30 50  1  0  0  0  0
 32 34  1  0  0  0  0
 33 53  1  0  0  0  0
 33 54  1  0  0  0  0
 33 55  1  0  0  0  0
 34 56  1  0  0  0  0
 34 57  1  0  0  0  0
 34 58  1  0  0  0  0
M  END
> <PUBCHEM_COMPOUND_CID>
9981692

> <PUBCHEM_COMPOUND_CANONICALIZED>
1

> <PUBCHEM_CACTVS_COMPLEXITY>
749

> <PUBCHEM_CACTVS_HBOND_ACCEPTOR>
6

> <PUBCHEM_CACTVS_HBOND_DONOR>
5

> <PUBCHEM_CACTVS_ROTATABLE_BOND>
6

> <PUBCHEM_CACTVS_SUBSKEYS>
AAADceB7uAAAAAAAAAAAAAAAAAAAAAAAAAAwYMAABYAAAAABUAAAHgAQCAAADAzBmAYyxoLABgCIAiVSUACCCAAlIgAIiIEO/MgNZnrG9ZuUcatk1hHL+cecyfCe6AABQAACQCDQAAKAAASAQAAAAAAAAA==

> <PUBCHEM_IUPAC_OPENEYE_NAME>
N-(2-acetamidoethyl)-9-(4-hydroxy-3-methoxy-phenyl)-6-oxo-5,11-dihydrobenzo[b][1,4]benzodiazepine-3-carboxamide

> <PUBCHEM_IUPAC_CAS_NAME>
N-(2-acetamidoethyl)-9-(4-hydroxy-3-methoxyphenyl)-6-oxo-5,11-dihydrobenzo[b][1,4]benzodiazepine-3-carboxamide

> <PUBCHEM_IUPAC_NAME_MARKUP>
<I>N</I>-(2-acetamidoethyl)-9-(4-hydroxy-3-methoxyphenyl)-6-oxo-5,11-dihydrobenzo[b][1,4]benzodiazepine-3-carboxamide

> <PUBCHEM_IUPAC_NAME>
N-(2-acetamidoethyl)-9-(4-hydroxy-3-methoxyphenyl)-6-oxo-5,11-dihydrobenzo[b][1,4]benzodiazepine-3-carboxamide

> <PUBCHEM_IUPAC_SYSTEMATIC_NAME>
N-(2-acetamidoethyl)-9-(3-methoxy-4-oxidanyl-phenyl)-6-oxidanylidene-5,11-dihydrobenzo[b][1,4]benzodiazepine-3-carboxamide

> <PUBCHEM_IUPAC_TRADITIONAL_NAME>
N-(2-acetamidoethyl)-9-(4-hydroxy-3-methoxy-phenyl)-6-keto-5,11-dihydrobenzo[b][1,4]benzodiazepine-3-carboxamide

> <PUBCHEM_IUPAC_INCHI>
InChI=1S/C25H24N4O5/c1-14(30)26-9-10-27-24(32)17-4-7-19-21(12-17)29-25(33)18-6-3-15(11-20(18)28-19)16-5-8-22(31)23(13-16)34-2/h3-8,11-13,28,31H,9-10H2,1-2H3,(H,26,30)(H,27,32)(H,29,33)

> <PUBCHEM_IUPAC_INCHIKEY>
LRINYHMQZRENCY-UHFFFAOYSA-N

> <PUBCHEM_XLOGP3_AA>
2.2

> <PUBCHEM_EXACT_MASS>
460.17466988

> <PUBCHEM_MOLECULAR_FORMULA>
C25H24N4O5

> <PUBCHEM_MOLECULAR_WEIGHT>
460.5

> <PUBCHEM_SMILES>
CC(=O)NCCNC(=O)C1=CC2=C(C=C1)NC3=C(C=CC(=C3)C4=CC(=C(C=C4)O)OC)C(=O)N2

> <PUBCHEM_OPENEYE_CAN_SMILES>
CC(=O)NCCNC(=O)C1=CC2=C(C=C1)NC3=C(C=CC(=C3)C4=CC(=C(C=C4)O)OC)C(=O)N2

> <PUBCHEM_OPENEYE_ISO_SMILES>
CC(=O)NCCNC(=O)C1=CC2=C(C=C1)NC3=C(C=CC(=C3)C4=CC(=C(C=C4)O)OC)C(=O)N2

> <PUBCHEM_CACTVS_TPSA>
129

> <PUBCHEM_MONOISOTOPIC_WEIGHT>
460.17466988

> <PUBCHEM_TOTAL_CHARGE>
0

> <PUBCHEM_HEAVY_ATOM_COUNT>
34

> <PUBCHEM_ATOM_DEF_STEREO_COUNT>
0

> <PUBCHEM_ATOM_UDEF_STEREO_COUNT>
0

> <PUBCHEM_BOND_DEF_STEREO_COUNT>
0

> <PUBCHEM_BOND_UDEF_STEREO_COUNT>
0

> <PUBCHEM_ISOTOPIC_ATOM_COUNT>
0

> <PUBCHEM_COMPONENT_COUNT>
1

> <PUBCHEM_CACTVS_TAUTO_COUNT>
-1

> <PUBCHEM_COORDINATE_TYPE>
1
5
255

> <PUBCHEM_BONDANNOTATIONS>
10  12  8
10  15  8
11  13  8
11  20  8
12  18  8
13  17  8
14  15  8
14  21  8
17  19  8
18  21  8
19  23  8
20  23  8
22  25  8
22  26  8
25  28  8
26  30  8
28  31  8
30  31  8

$$$$
