49830992
  -OEChem-03202504172D

 37 39  0     0  0  0  0  0  0999 V2000
    7.1962    2.2500    0.0000 Cl  0  0  0  0  0  0  0  0  0  0  0  0
    5.4641   -0.7500    0.0000 N   0  0  0  0  0  0  0  0  0  0  0  0
    8.9282   -0.7500    0.0000 N   0  0  0  0  0  0  0  0  0  0  0  0
    7.1962   -0.7500    0.0000 N   0  0  0  0  0  0  0  0  0  0  0  0
   11.3769    0.0864    0.0000 N   0  0  0  0  0  0  0  0  0  0  0  0
   10.7078   -0.6567    0.0000 N   0  0  0  0  0  0  0  0  0  0  0  0
    8.0622    0.7500    0.0000 N   0  0  0  0  0  0  0  0  0  0  0  0
    4.5981   -0.2500    0.0000 C   0  0  0  0  0  0  0  0  0  0  0  0
    3.7320   -0.7500    0.0000 C   0  0  0  0  0  0  0  0  0  0  0  0
    6.3301   -0.2500    0.0000 C   0  0  0  0  0  0  0  0  0  0  0  0
    9.7942   -0.2500    0.0000 C   0  0  0  0  0  0  0  0  0  0  0  0
   10.8769    0.9524    0.0000 C   0  0  0  0  0  0  0  0  0  0  0  0
    3.7320   -1.7500    0.0000 C   0  0  0  0  0  0  0  0  0  0  0  0
    2.8660   -0.2500    0.0000 C   0  0  0  0  0  0  0  0  0  0  0  0
    9.8988    0.7445    0.0000 C   0  0  0  0  0  0  0  0  0  0  0  0
    8.0622   -0.2500    0.0000 C   0  0  0  0  0  0  0  0  0  0  0  0
    6.3301    0.7500    0.0000 C   0  0  0  0  0  0  0  0  0  0  0  0
    2.8660   -2.2500    0.0000 C   0  0  0  0  0  0  0  0  0  0  0  0
    2.0000   -0.7500    0.0000 C   0  0  0  0  0  0  0  0  0  0  0  0
   11.2836    1.8660    0.0000 C   0  0  0  0  0  0  0  0  0  0  0  0
    2.0000   -1.7500    0.0000 C   0  0  0  0  0  0  0  0  0  0  0  0
    7.1962    1.2500    0.0000 C   0  0  0  0  0  0  0  0  0  0  0  0
    4.9966    0.2249    0.0000 H   0  0  0  0  0  0  0  0  0  0  0  0
    4.1996    0.2249    0.0000 H   0  0  0  0  0  0  0  0  0  0  0  0
    5.4641   -1.3700    0.0000 H   0  0  0  0  0  0  0  0  0  0  0  0
    4.2690   -2.0600    0.0000 H   0  0  0  0  0  0  0  0  0  0  0  0
    2.8660    0.3700    0.0000 H   0  0  0  0  0  0  0  0  0  0  0  0
    9.4380    1.1594    0.0000 H   0  0  0  0  0  0  0  0  0  0  0  0
    8.9282   -1.3700    0.0000 H   0  0  0  0  0  0  0  0  0  0  0  0
    5.7932    1.0600    0.0000 H   0  0  0  0  0  0  0  0  0  0  0  0
   11.9935    0.0216    0.0000 H   0  0  0  0  0  0  0  0  0  0  0  0
    2.8660   -2.8700    0.0000 H   0  0  0  0  0  0  0  0  0  0  0  0
    1.4631   -0.4400    0.0000 H   0  0  0  0  0  0  0  0  0  0  0  0
   11.8500    1.6138    0.0000 H   0  0  0  0  0  0  0  0  0  0  0  0
   11.5358    2.4324    0.0000 H   0  0  0  0  0  0  0  0  0  0  0  0
   10.7172    2.1182    0.0000 H   0  0  0  0  0  0  0  0  0  0  0  0
    1.4631   -2.0600    0.0000 H   0  0  0  0  0  0  0  0  0  0  0  0
  1 22  1  0  0  0  0
  2  8  1  0  0  0  0
  2 10  1  0  0  0  0
  2 25  1  0  0  0  0
  3 11  1  0  0  0  0
  3 16  1  0  0  0  0
  3 29  1  0  0  0  0
  4 10  1  0  0  0  0
  4 16  2  0  0  0  0
  5  6  1  0  0  0  0
  5 12  1  0  0  0  0
  5 31  1  0  0  0  0
  6 11  2  0  0  0  0
  7 16  1  0  0  0  0
  7 22  2  0  0  0  0
  8  9  1  0  0  0  0
  8 23  1  0  0  0  0
  8 24  1  0  0  0  0
  9 13  2  0  0  0  0
  9 14  1  0  0  0  0
 10 17  2  0  0  0  0
 11 15  1  0  0  0  0
 12 15  2  0  0  0  0
 12 20  1  0  0  0  0
 13 18  1  0  0  0  0
 13 26  1  0  0  0  0
 14 19  2  0  0  0  0
 14 27  1  0  0  0  0
 15 28  1  0  0  0  0
 17 22  1  0  0  0  0
 17 30  1  0  0  0  0
 18 21  2  0  0  0  0
 18 32  1  0  0  0  0
 19 21  1  0  0  0  0
 19 33  1  0  0  0  0
 20 34  1  0  0  0  0
 20 35  1  0  0  0  0
 20 36  1  0  0  0  0
 21 37  1  0  0  0  0
M  END
> <PUBCHEM_COMPOUND_CID>
49830992

> <PUBCHEM_COMPOUND_CANONICALIZED>
1

> <PUBCHEM_CACTVS_COMPLEXITY>
338

> <PUBCHEM_CACTVS_HBOND_ACCEPTOR>
5

> <PUBCHEM_CACTVS_HBOND_DONOR>
3

> <PUBCHEM_CACTVS_ROTATABLE_BOND>
5

> <PUBCHEM_CACTVS_SUBSKEYS>
AAADccBzgAAEAAAAAAAAAAAAAAAAAWAAAAA8QAAAAAAAAAAB8AAAHAIYAAAADArBHiQzsJbrEACiAyZiZACShCshB6AduaA4ZpiIKCLA2dGEpAh4mALIyCcQgAAOAAAAAAAAAAAAAAAAAAAAAAAAAAAAAA==

> <PUBCHEM_IUPAC_OPENEYE_NAME>
N4-benzyl-6-chloro-N2-(5-methyl-1H-pyrazol-3-yl)pyrimidine-2,4-diamine

> <PUBCHEM_IUPAC_CAS_NAME>
6-chloro-N2-(5-methyl-1H-pyrazol-3-yl)-N4-(phenylmethyl)pyrimidine-2,4-diamine

> <PUBCHEM_IUPAC_NAME_MARKUP>
4-<I>N</I>-benzyl-6-chloro-2-<I>N</I>-(5-methyl-1<I>H</I>-pyrazol-3-yl)pyrimidine-2,4-diamine

> <PUBCHEM_IUPAC_NAME>
4-N-benzyl-6-chloro-2-N-(5-methyl-1H-pyrazol-3-yl)pyrimidine-2,4-diamine

> <PUBCHEM_IUPAC_SYSTEMATIC_NAME>
6-chloranyl-N2-(5-methyl-1H-pyrazol-3-yl)-N4-(phenylmethyl)pyrimidine-2,4-diamine

> <PUBCHEM_IUPAC_TRADITIONAL_NAME>
benzyl-[6-chloro-2-[(5-methyl-1H-pyrazol-3-yl)amino]pyrimidin-4-yl]amine

> <PUBCHEM_IUPAC_INCHI>
InChI=1S/C15H15ClN6/c1-10-7-14(22-21-10)20-15-18-12(16)8-13(19-15)17-9-11-5-3-2-4-6-11/h2-8H,9H2,1H3,(H3,17,18,19,20,21,22)

> <PUBCHEM_IUPAC_INCHIKEY>
QLWUDWMYFSWGHK-UHFFFAOYSA-N

> <PUBCHEM_XLOGP3_AA>
3.9

> <PUBCHEM_EXACT_MASS>
314.1046722

> <PUBCHEM_MOLECULAR_FORMULA>
C15H15ClN6

> <PUBCHEM_MOLECULAR_WEIGHT>
314.77

> <PUBCHEM_SMILES>
CC1=CC(=NN1)NC2=NC(=CC(=N2)Cl)NCC3=CC=CC=C3

> <PUBCHEM_OPENEYE_CAN_SMILES>
CC1=CC(=NN1)NC2=NC(=CC(=N2)Cl)NCC3=CC=CC=C3

> <PUBCHEM_OPENEYE_ISO_SMILES>
CC1=CC(=NN1)NC2=NC(=CC(=N2)Cl)NCC3=CC=CC=C3

> <PUBCHEM_CACTVS_TPSA>
78.5

> <PUBCHEM_MONOISOTOPIC_WEIGHT>
314.1046722

> <PUBCHEM_TOTAL_CHARGE>
0

> <PUBCHEM_HEAVY_ATOM_COUNT>
22

> <PUBCHEM_ATOM_DEF_STEREO_COUNT>
0

> <PUBCHEM_ATOM_UDEF_STEREO_COUNT>
0

> <PUBCHEM_BOND_DEF_STEREO_COUNT>
0

> <PUBCHEM_BOND_UDEF_STEREO_COUNT>
0

> <PUBCHEM_ISOTOPIC_ATOM_COUNT>
0

> <PUBCHEM_COMPONENT_COUNT>
1

> <PUBCHEM_CACTVS_TAUTO_COUNT>
-1

> <PUBCHEM_COORDINATE_TYPE>
1
5
255

> <PUBCHEM_BONDANNOTATIONS>
10  17  8
11  15  8
12  15  8
13  18  8
14  19  8
17  22  8
18  21  8
19  21  8
4  10  8
4  16  8
5  12  8
5  6  8
6  11  8
7  16  8
7  22  8
9  13  8
9  14  8

$$$$
