5329453
  -OEChem-03202505302D

 53 57  0     0  0  0  0  0  0999 V2000
    2.0000   -1.5782    0.0000 O   0  0  0  0  0  0  0  0  0  0  0  0
    6.3301   -3.0782    0.0000 O   0  0  0  0  0  0  0  0  0  0  0  0
    3.7320   -2.5782    0.0000 N   0  0  0  0  0  0  0  0  0  0  0  0
   11.5263   -1.0782    0.0000 N   0  0  0  0  0  0  0  0  0  0  0  0
   10.6603    0.4219    0.0000 N   0  0  0  0  0  0  0  0  0  0  0  0
   12.4725   -1.3829    0.0000 N   0  0  0  0  0  0  0  0  0  0  0  0
   13.4045    3.0782    0.0000 N   0  0  0  0  0  0  0  0  0  0  0  0
    2.8660   -3.0782    0.0000 C   0  0  0  0  0  0  0  0  0  0  0  0
    3.7320   -1.5782    0.0000 C   0  0  0  0  0  0  0  0  0  0  0  0
    4.5981   -3.0782    0.0000 C   0  0  0  0  0  0  0  0  0  0  0  0
    2.0000   -2.5782    0.0000 C   0  0  0  0  0  0  0  0  0  0  0  0
    2.8660   -1.0782    0.0000 C   0  0  0  0  0  0  0  0  0  0  0  0
    5.4641   -2.5782    0.0000 C   0  0  0  0  0  0  0  0  0  0  0  0
    7.1962   -2.5782    0.0000 C   0  0  0  0  0  0  0  0  0  0  0  0
    8.9282   -1.5782    0.0000 C   0  0  0  0  0  0  0  0  0  0  0  0
    9.7942   -1.0782    0.0000 C   0  0  0  0  0  0  0  0  0  0  0  0
   11.5263   -0.0781    0.0000 C   0  0  0  0  0  0  0  0  0  0  0  0
   12.4725    0.2266    0.0000 C   0  0  0  0  0  0  0  0  0  0  0  0
   10.6603   -1.5782    0.0000 C   0  0  0  0  0  0  0  0  0  0  0  0
    8.0622   -3.0782    0.0000 C   0  0  0  0  0  0  0  0  0  0  0  0
    7.1962   -1.5782    0.0000 C   0  0  0  0  0  0  0  0  0  0  0  0
    8.9282   -2.5782    0.0000 C   0  0  0  0  0  0  0  0  0  0  0  0
    8.0622   -1.0782    0.0000 C   0  0  0  0  0  0  0  0  0  0  0  0
    9.7942   -0.0781    0.0000 C   0  0  0  0  0  0  0  0  0  0  0  0
   12.7832    1.1771    0.0000 C   0  0  0  0  0  0  0  0  0  0  0  0
   13.0561   -0.5781    0.0000 C   0  0  0  0  0  0  0  0  0  0  0  0
   13.7617    1.3833    0.0000 C   0  0  0  0  0  0  0  0  0  0  0  0
   12.1153    1.9214    0.0000 C   0  0  0  0  0  0  0  0  0  0  0  0
   14.0723    2.3338    0.0000 C   0  0  0  0  0  0  0  0  0  0  0  0
   12.4260    2.8719    0.0000 C   0  0  0  0  0  0  0  0  0  0  0  0
    2.4675   -3.5531    0.0000 H   0  0  0  0  0  0  0  0  0  0  0  0
    3.2646   -3.5531    0.0000 H   0  0  0  0  0  0  0  0  0  0  0  0
    4.3426   -1.6858    0.0000 H   0  0  0  0  0  0  0  0  0  0  0  0
    3.9441   -0.9955    0.0000 H   0  0  0  0  0  0  0  0  0  0  0  0
    4.1996   -3.5531    0.0000 H   0  0  0  0  0  0  0  0  0  0  0  0
    4.9966   -3.5531    0.0000 H   0  0  0  0  0  0  0  0  0  0  0  0
    1.3894   -2.4705    0.0000 H   0  0  0  0  0  0  0  0  0  0  0  0
    1.7880   -3.1608    0.0000 H   0  0  0  0  0  0  0  0  0  0  0  0
    3.2646   -0.6032    0.0000 H   0  0  0  0  0  0  0  0  0  0  0  0
    2.4675   -0.6032    0.0000 H   0  0  0  0  0  0  0  0  0  0  0  0
    5.8626   -2.1032    0.0000 H   0  0  0  0  0  0  0  0  0  0  0  0
    5.0656   -2.1032    0.0000 H   0  0  0  0  0  0  0  0  0  0  0  0
   10.6603   -2.1982    0.0000 H   0  0  0  0  0  0  0  0  0  0  0  0
    8.0622   -3.6982    0.0000 H   0  0  0  0  0  0  0  0  0  0  0  0
    6.6592   -1.2682    0.0000 H   0  0  0  0  0  0  0  0  0  0  0  0
    9.4651   -2.8882    0.0000 H   0  0  0  0  0  0  0  0  0  0  0  0
    8.0622   -0.4581    0.0000 H   0  0  0  0  0  0  0  0  0  0  0  0
    9.2573    0.2319    0.0000 H   0  0  0  0  0  0  0  0  0  0  0  0
   13.6761   -0.5781    0.0000 H   0  0  0  0  0  0  0  0  0  0  0  0
   14.1757    0.9219    0.0000 H   0  0  0  0  0  0  0  0  0  0  0  0
   11.5086    1.7936    0.0000 H   0  0  0  0  0  0  0  0  0  0  0  0
   14.6790    2.4617    0.0000 H   0  0  0  0  0  0  0  0  0  0  0  0
   12.0119    3.3334    0.0000 H   0  0  0  0  0  0  0  0  0  0  0  0
  1 11  1  0  0  0  0
  1 12  1  0  0  0  0
  2 13  1  0  0  0  0
  2 14  1  0  0  0  0
  3  8  1  0  0  0  0
  3  9  1  0  0  0  0
  3 10  1  0  0  0  0
  4  6  1  0  0  0  0
  4 17  1  0  0  0  0
  4 19  1  0  0  0  0
  5 17  1  0  0  0  0
  5 24  2  0  0  0  0
  6 26  2  0  0  0  0
  7 29  2  0  0  0  0
  7 30  1  0  0  0  0
  8 11  1  0  0  0  0
  8 31  1  0  0  0  0
  8 32  1  0  0  0  0
  9 12  1  0  0  0  0
  9 33  1  0  0  0  0
  9 34  1  0  0  0  0
 10 13  1  0  0  0  0
 10 35  1  0  0  0  0
 10 36  1  0  0  0  0
 11 37  1  0  0  0  0
 11 38  1  0  0  0  0
 12 39  1  0  0  0  0
 12 40  1  0  0  0  0
 13 41  1  0  0  0  0
 13 42  1  0  0  0  0
 14 20  2  0  0  0  0
 14 21  1  0  0  0  0
 15 16  1  0  0  0  0
 15 22  2  0  0  0  0
 15 23  1  0  0  0  0
 16 19  2  0  0  0  0
 16 24  1  0  0  0  0
 17 18  2  0  0  0  0
 18 25  1  0  0  0  0
 18 26  1  0  0  0  0
 19 43  1  0  0  0  0
 20 22  1  0  0  0  0
 20 44  1  0  0  0  0
 21 23  2  0  0  0  0
 21 45  1  0  0  0  0
 22 46  1  0  0  0  0
 23 47  1  0  0  0  0
 24 48  1  0  0  0  0
 25 27  2  0  0  0  0
 25 28  1  0  0  0  0
 26 49  1  0  0  0  0
 27 29  1  0  0  0  0
 27 50  1  0  0  0  0
 28 30  2  0  0  0  0
 28 51  1  0  0  0  0
 29 52  1  0  0  0  0
 30 53  1  0  0  0  0
M  END
> <PUBCHEM_COMPOUND_CID>
5329453

> <PUBCHEM_COMPOUND_CANONICALIZED>
1

> <PUBCHEM_CACTVS_COMPLEXITY>
518

> <PUBCHEM_CACTVS_HBOND_ACCEPTOR>
6

> <PUBCHEM_CACTVS_HBOND_DONOR>
0

> <PUBCHEM_CACTVS_ROTATABLE_BOND>
6

> <PUBCHEM_CACTVS_SUBSKEYS>
AAADceB7sAAAAAAAAAAAAAAAAAAAAWAAAAA8WLEAAAAAAFgB/AAAHgAIAAAADAThmwY9tp8IFACiAjJnZACSjCsxoqAd2CA+bJiOLuLE+duHvCjsyBPY6CeQwNAOoAAAAAAAAABAAAAAAAAAAAAAAAAAAA==

> <PUBCHEM_IUPAC_OPENEYE_NAME>
4-[2-[4-[3-(4-pyridyl)pyrazolo[1,5-a]pyrimidin-6-yl]phenoxy]ethyl]morpholine

> <PUBCHEM_IUPAC_CAS_NAME>
4-[2-[4-(3-pyridin-4-yl-6-pyrazolo[1,5-a]pyrimidinyl)phenoxy]ethyl]morpholine

> <PUBCHEM_IUPAC_NAME_MARKUP>
4-[2-[4-(3-pyridin-4-ylpyrazolo[1,5-a]pyrimidin-6-yl)phenoxy]ethyl]morpholine

> <PUBCHEM_IUPAC_NAME>
4-[2-[4-(3-pyridin-4-ylpyrazolo[1,5-a]pyrimidin-6-yl)phenoxy]ethyl]morpholine

> <PUBCHEM_IUPAC_SYSTEMATIC_NAME>
4-[2-[4-(3-pyridin-4-ylpyrazolo[1,5-a]pyrimidin-6-yl)phenoxy]ethyl]morpholine

> <PUBCHEM_IUPAC_TRADITIONAL_NAME>
4-[2-[4-[3-(4-pyridyl)pyrazolo[1,5-a]pyrimidin-6-yl]phenoxy]ethyl]morpholine

> <PUBCHEM_IUPAC_INCHI>
InChI=1S/C23H23N5O2/c1-3-21(30-14-11-27-9-12-29-13-10-27)4-2-18(1)20-15-25-23-22(16-26-28(23)17-20)19-5-7-24-8-6-19/h1-8,15-17H,9-14H2

> <PUBCHEM_IUPAC_INCHIKEY>
OOQJIJYKWXLQNC-UHFFFAOYSA-N

> <PUBCHEM_XLOGP3_AA>
2.1

> <PUBCHEM_EXACT_MASS>
401.18517499

> <PUBCHEM_MOLECULAR_FORMULA>
C23H23N5O2

> <PUBCHEM_MOLECULAR_WEIGHT>
401.5

> <PUBCHEM_SMILES>
C1COCCN1CCOC2=CC=C(C=C2)C3=CN4C(=C(C=N4)C5=CC=NC=C5)N=C3

> <PUBCHEM_OPENEYE_CAN_SMILES>
C1COCCN1CCOC2=CC=C(C=C2)C3=CN4C(=C(C=N4)C5=CC=NC=C5)N=C3

> <PUBCHEM_OPENEYE_ISO_SMILES>
C1COCCN1CCOC2=CC=C(C=C2)C3=CN4C(=C(C=N4)C5=CC=NC=C5)N=C3

> <PUBCHEM_CACTVS_TPSA>
64.8

> <PUBCHEM_MONOISOTOPIC_WEIGHT>
401.18517499

> <PUBCHEM_TOTAL_CHARGE>
0

> <PUBCHEM_HEAVY_ATOM_COUNT>
30

> <PUBCHEM_ATOM_DEF_STEREO_COUNT>
0

> <PUBCHEM_ATOM_UDEF_STEREO_COUNT>
0

> <PUBCHEM_BOND_DEF_STEREO_COUNT>
0

> <PUBCHEM_BOND_UDEF_STEREO_COUNT>
0

> <PUBCHEM_ISOTOPIC_ATOM_COUNT>
0

> <PUBCHEM_COMPONENT_COUNT>
1

> <PUBCHEM_CACTVS_TAUTO_COUNT>
-1

> <PUBCHEM_COORDINATE_TYPE>
1
5
255

> <PUBCHEM_BONDANNOTATIONS>
14  20  8
14  21  8
15  22  8
15  23  8
16  19  8
16  24  8
17  18  8
18  26  8
20  22  8
21  23  8
25  27  8
25  28  8
27  29  8
28  30  8
4  17  8
4  19  8
4  6  8
5  17  8
5  24  8
6  26  8
7  29  8
7  30  8

$$$$
