136027079
  -OEChem-03202502222D

 45 48  0     0  0  0  0  0  0999 V2000
    7.7654    2.3691    0.0000 O   0  0  0  0  0  0  0  0  0  0  0  0
    2.0000   -3.4439    0.0000 O   0  0  0  0  0  0  0  0  0  0  0  0
    6.1279   -2.4439    0.0000 N   0  0  0  0  0  0  0  0  0  0  0  0
    3.7320   -3.4439    0.0000 N   0  0  0  0  0  0  0  0  0  0  0  0
    5.5443   -3.2487    0.0000 N   0  0  0  0  0  0  0  0  0  0  0  0
    4.5981   -1.9439    0.0000 C   0  0  0  0  0  0  0  0  0  0  0  0
    5.5443   -1.6392    0.0000 C   0  0  0  0  0  0  0  0  0  0  0  0
    5.8550   -0.6887    0.0000 C   0  0  0  0  0  0  0  0  0  0  0  0
    4.5981   -2.9439    0.0000 C   0  0  0  0  0  0  0  0  0  0  0  0
    3.7320   -1.4439    0.0000 C   0  0  0  0  0  0  0  0  0  0  0  0
    7.1441    0.4681    0.0000 C   0  0  0  0  0  0  0  0  0  0  0  0
    6.8335   -0.4825    0.0000 C   0  0  0  0  0  0  0  0  0  0  0  0
    8.1226    0.6743    0.0000 C   0  0  0  0  0  0  0  0  0  0  0  0
    5.1871    0.0556    0.0000 C   0  0  0  0  0  0  0  0  0  0  0  0
    2.8660   -1.9439    0.0000 C   0  0  0  0  0  0  0  0  0  0  0  0
    6.4763    1.2124    0.0000 C   0  0  0  0  0  0  0  0  0  0  0  0
    3.7320   -0.4439    0.0000 C   0  0  0  0  0  0  0  0  0  0  0  0
    2.8660   -2.9439    0.0000 C   0  0  0  0  0  0  0  0  0  0  0  0
    5.4978    1.0062    0.0000 C   0  0  0  0  0  0  0  0  0  0  0  0
    8.4333    1.6248    0.0000 C   0  0  0  0  0  0  0  0  0  0  0  0
    8.7905   -0.0700    0.0000 C   0  0  0  0  0  0  0  0  0  0  0  0
    9.4118    1.8310    0.0000 C   0  0  0  0  0  0  0  0  0  0  0  0
    9.7690    0.1362    0.0000 C   0  0  0  0  0  0  0  0  0  0  0  0
   10.0796    1.0867    0.0000 C   0  0  0  0  0  0  0  0  0  0  0  0
    8.0761    3.3196    0.0000 C   0  0  0  0  0  0  0  0  0  0  0  0
    7.4083    4.0639    0.0000 C   0  0  0  0  0  0  0  0  0  0  0  0
    7.2475   -0.9439    0.0000 H   0  0  0  0  0  0  0  0  0  0  0  0
    6.7479   -2.4439    0.0000 H   0  0  0  0  0  0  0  0  0  0  0  0
    4.5804   -0.0722    0.0000 H   0  0  0  0  0  0  0  0  0  0  0  0
    3.7320   -4.0639    0.0000 H   0  0  0  0  0  0  0  0  0  0  0  0
    2.3291   -1.6339    0.0000 H   0  0  0  0  0  0  0  0  0  0  0  0
    6.6689    1.8017    0.0000 H   0  0  0  0  0  0  0  0  0  0  0  0
    4.3520   -0.4439    0.0000 H   0  0  0  0  0  0  0  0  0  0  0  0
    3.7320    0.1761    0.0000 H   0  0  0  0  0  0  0  0  0  0  0  0
    3.1120   -0.4439    0.0000 H   0  0  0  0  0  0  0  0  0  0  0  0
    5.0837    1.4676    0.0000 H   0  0  0  0  0  0  0  0  0  0  0  0
    8.5979   -0.6593    0.0000 H   0  0  0  0  0  0  0  0  0  0  0  0
    9.6044    2.4203    0.0000 H   0  0  0  0  0  0  0  0  0  0  0  0
   10.1830   -0.3253    0.0000 H   0  0  0  0  0  0  0  0  0  0  0  0
   10.6863    1.2146    0.0000 H   0  0  0  0  0  0  0  0  0  0  0  0
    8.6230    3.0276    0.0000 H   0  0  0  0  0  0  0  0  0  0  0  0
    8.4587    3.8075    0.0000 H   0  0  0  0  0  0  0  0  0  0  0  0
    7.8697    4.4780    0.0000 H   0  0  0  0  0  0  0  0  0  0  0  0
    6.9942    4.5254    0.0000 H   0  0  0  0  0  0  0  0  0  0  0  0
    6.9468    3.6499    0.0000 H   0  0  0  0  0  0  0  0  0  0  0  0
  1 20  1  0  0  0  0
  1 25  1  0  0  0  0
  2 18  2  0  0  0  0
  3  5  1  0  0  0  0
  3  7  1  0  0  0  0
  3 28  1  0  0  0  0
  4  9  1  0  0  0  0
  4 18  1  0  0  0  0
  4 30  1  0  0  0  0
  5  9  2  0  0  0  0
  6  7  2  0  0  0  0
  6  9  1  0  0  0  0
  6 10  1  0  0  0  0
  7  8  1  0  0  0  0
  8 12  1  0  0  0  0
  8 14  2  0  0  0  0
 10 15  2  0  0  0  0
 10 17  1  0  0  0  0
 11 12  2  0  0  0  0
 11 13  1  0  0  0  0
 11 16  1  0  0  0  0
 12 27  1  0  0  0  0
 13 20  1  0  0  0  0
 13 21  2  0  0  0  0
 14 19  1  0  0  0  0
 14 29  1  0  0  0  0
 15 18  1  0  0  0  0
 15 31  1  0  0  0  0
 16 19  2  0  0  0  0
 16 32  1  0  0  0  0
 17 33  1  0  0  0  0
 17 34  1  0  0  0  0
 17 35  1  0  0  0  0
 19 36  1  0  0  0  0
 20 22  2  0  0  0  0
 21 23  1  0  0  0  0
 21 37  1  0  0  0  0
 22 24  1  0  0  0  0
 22 38  1  0  0  0  0
 23 24  2  0  0  0  0
 23 39  1  0  0  0  0
 24 40  1  0  0  0  0
 25 26  1  0  0  0  0
 25 41  1  0  0  0  0
 25 42  1  0  0  0  0
 26 43  1  0  0  0  0
 26 44  1  0  0  0  0
 26 45  1  0  0  0  0
M  END
> <PUBCHEM_COMPOUND_CID>
136027079

> <PUBCHEM_COMPOUND_CANONICALIZED>
1

> <PUBCHEM_CACTVS_COMPLEXITY>
549

> <PUBCHEM_CACTVS_HBOND_ACCEPTOR>
3

> <PUBCHEM_CACTVS_HBOND_DONOR>
2

> <PUBCHEM_CACTVS_ROTATABLE_BOND>
4

> <PUBCHEM_CACTVS_SUBSKEYS>
AAADceB7MAAAAAAAAAAAAAAAAAAAAWAAAAAwYIAAAAAAAEAB0AAAHgAYAAAADAyhngIztpLjBACqAydycACSDAIhIAAduSAmTNiMJqLE+duGvCj03RPI6QeQwPAOgAACAAAIAAAAAAQAABAAAAAAAAAAAA==

> <PUBCHEM_IUPAC_OPENEYE_NAME>
3-[3-(2-ethoxyphenyl)phenyl]-4-methyl-2,7-dihydropyrazolo[3,4-b]pyridin-6-one

> <PUBCHEM_IUPAC_CAS_NAME>
3-[3-(2-ethoxyphenyl)phenyl]-4-methyl-2,7-dihydropyrazolo[3,4-b]pyridin-6-one

> <PUBCHEM_IUPAC_NAME_MARKUP>
3-[3-(2-ethoxyphenyl)phenyl]-4-methyl-2,7-dihydropyrazolo[3,4-b]pyridin-6-one

> <PUBCHEM_IUPAC_NAME>
3-[3-(2-ethoxyphenyl)phenyl]-4-methyl-2,7-dihydropyrazolo[3,4-b]pyridin-6-one

> <PUBCHEM_IUPAC_SYSTEMATIC_NAME>
3-[3-(2-ethoxyphenyl)phenyl]-4-methyl-2,7-dihydropyrazolo[3,4-b]pyridin-6-one

> <PUBCHEM_IUPAC_TRADITIONAL_NAME>
4-methyl-3-(3-o-phenetylphenyl)-2,7-dihydropyrazolo[3,4-b]pyridin-6-one

> <PUBCHEM_IUPAC_INCHI>
InChI=1S/C21H19N3O2/c1-3-26-17-10-5-4-9-16(17)14-7-6-8-15(12-14)20-19-13(2)11-18(25)22-21(19)24-23-20/h4-12H,3H2,1-2H3,(H2,22,23,24,25)

> <PUBCHEM_IUPAC_INCHIKEY>
SACRIVBWIXWZAH-UHFFFAOYSA-N

> <PUBCHEM_XLOGP3_AA>
3.5

> <PUBCHEM_EXACT_MASS>
345.147726857

> <PUBCHEM_MOLECULAR_FORMULA>
C21H19N3O2

> <PUBCHEM_MOLECULAR_WEIGHT>
345.4

> <PUBCHEM_SMILES>
CCOC1=CC=CC=C1C2=CC(=CC=C2)C3=C4C(=CC(=O)NC4=NN3)C

> <PUBCHEM_OPENEYE_CAN_SMILES>
CCOC1=CC=CC=C1C2=CC(=CC=C2)C3=C4C(=CC(=O)NC4=NN3)C

> <PUBCHEM_OPENEYE_ISO_SMILES>
CCOC1=CC=CC=C1C2=CC(=CC=C2)C3=C4C(=CC(=O)NC4=NN3)C

> <PUBCHEM_CACTVS_TPSA>
67

> <PUBCHEM_MONOISOTOPIC_WEIGHT>
345.147726857

> <PUBCHEM_TOTAL_CHARGE>
0

> <PUBCHEM_HEAVY_ATOM_COUNT>
26

> <PUBCHEM_ATOM_DEF_STEREO_COUNT>
0

> <PUBCHEM_ATOM_UDEF_STEREO_COUNT>
0

> <PUBCHEM_BOND_DEF_STEREO_COUNT>
0

> <PUBCHEM_BOND_UDEF_STEREO_COUNT>
0

> <PUBCHEM_ISOTOPIC_ATOM_COUNT>
0

> <PUBCHEM_COMPONENT_COUNT>
1

> <PUBCHEM_CACTVS_TAUTO_COUNT>
-1

> <PUBCHEM_COORDINATE_TYPE>
1
5
255

> <PUBCHEM_BONDANNOTATIONS>
10  15  8
11  12  8
11  16  8
13  20  8
13  21  8
14  19  8
15  18  8
16  19  8
20  22  8
21  23  8
22  24  8
23  24  8
3  5  8
3  7  8
4  18  8
4  9  8
5  9  8
6  10  8
6  7  8
6  9  8
8  12  8
8  14  8

$$$$
