49830715
  -OEChem-03202503102D

 49 53  0     1  0  0  0  0  0999 V2000
    3.9075   -2.8871    0.0000 S   0  0  0  0  0  0  0  0  0  0  0  0
    4.3159   -3.7999    0.0000 O   0  0  0  0  0  0  0  0  0  0  0  0
    3.4992   -1.9742    0.0000 O   0  0  0  0  0  0  0  0  0  0  0  0
    4.8204   -2.4787    0.0000 N   0  0  0  0  0  0  0  0  0  0  0  0
    6.0374    1.7114    0.0000 N   0  0  0  0  0  0  0  0  0  0  0  0
    7.2353    0.6365    0.0000 N   0  0  0  0  0  0  0  0  0  0  0  0
    6.0374    3.7114    0.0000 N   0  0  0  0  0  0  0  0  0  0  0  0
    4.2251    3.5161    0.0000 N   0  0  0  0  0  0  0  0  0  0  0  0
    4.5840    0.0980    0.0000 C   0  0  3  0  0  0  0  0  0  0  0  0
    4.9232   -1.4840    0.0000 C   0  0  3  0  0  0  0  0  0  0  0  0
    5.5787   -0.0048    0.0000 C   0  0  3  0  0  0  0  0  0  0  0  0
    4.1789   -0.8162    0.0000 C   0  0  0  0  0  0  0  0  0  0  0  0
    5.7884   -0.9825    0.0000 C   0  0  0  0  0  0  0  0  0  0  0  0
    2.9947   -3.2954    0.0000 C   0  0  0  0  0  0  0  0  0  0  0  0
    2.0000   -3.1926    0.0000 C   0  0  0  0  0  0  0  0  0  0  0  0
    2.4083   -4.1054    0.0000 C   0  0  0  0  0  0  0  0  0  0  0  0
    4.0825    0.9632    0.0000 C   0  0  0  0  0  0  0  0  0  0  0  0
    6.2466    0.7395    0.0000 C   0  0  0  0  0  0  0  0  0  0  0  0
    3.0826    0.9615    0.0000 C   0  0  0  0  0  0  0  0  0  0  0  0
    6.9034    2.2114    0.0000 C   0  0  0  0  0  0  0  0  0  0  0  0
    5.1714    2.2114    0.0000 C   0  0  0  0  0  0  0  0  0  0  0  0
    7.6404    1.5443    0.0000 C   0  0  0  0  0  0  0  0  0  0  0  0
    5.1714    3.2114    0.0000 C   0  0  0  0  0  0  0  0  0  0  0  0
    6.9034    3.2114    0.0000 C   0  0  0  0  0  0  0  0  0  0  0  0
    4.2251    1.9066    0.0000 C   0  0  0  0  0  0  0  0  0  0  0  0
    3.6415    2.7114    0.0000 C   0  0  0  0  0  0  0  0  0  0  0  0
    3.9650    0.0645    0.0000 H   0  0  0  0  0  0  0  0  0  0  0  0
    5.4438   -1.8208    0.0000 H   0  0  0  0  0  0  0  0  0  0  0  0
    5.3556    0.5737    0.0000 H   0  0  0  0  0  0  0  0  0  0  0  0
    3.6414   -0.5071    0.0000 H   0  0  0  0  0  0  0  0  0  0  0  0
    3.8153   -1.3184    0.0000 H   0  0  0  0  0  0  0  0  0  0  0  0
    6.0415   -1.5485    0.0000 H   0  0  0  0  0  0  0  0  0  0  0  0
    6.3777   -0.7899    0.0000 H   0  0  0  0  0  0  0  0  0  0  0  0
    3.3857   -3.7765    0.0000 H   0  0  0  0  0  0  0  0  0  0  0  0
    1.9557   -2.5742    0.0000 H   0  0  0  0  0  0  0  0  0  0  0  0
    1.3987   -3.3436    0.0000 H   0  0  0  0  0  0  0  0  0  0  0  0
    1.8949   -4.4530    0.0000 H   0  0  0  0  0  0  0  0  0  0  0  0
    2.8398   -4.5507    0.0000 H   0  0  0  0  0  0  0  0  0  0  0  0
    5.3226   -2.8423    0.0000 H   0  0  0  0  0  0  0  0  0  0  0  0
    4.6648    1.1763    0.0000 H   0  0  0  0  0  0  0  0  0  0  0  0
    3.9738    1.5736    0.0000 H   0  0  0  0  0  0  0  0  0  0  0  0
    3.0815    1.5815    0.0000 H   0  0  0  0  0  0  0  0  0  0  0  0
    2.4625    0.9604    0.0000 H   0  0  0  0  0  0  0  0  0  0  0  0
    3.0836    0.3415    0.0000 H   0  0  0  0  0  0  0  0  0  0  0  0
    8.2471    1.6721    0.0000 H   0  0  0  0  0  0  0  0  0  0  0  0
    7.4403    3.5214    0.0000 H   0  0  0  0  0  0  0  0  0  0  0  0
    4.0325    1.3173    0.0000 H   0  0  0  0  0  0  0  0  0  0  0  0
    4.0325    4.1054    0.0000 H   0  0  0  0  0  0  0  0  0  0  0  0
    3.0215    2.7114    0.0000 H   0  0  0  0  0  0  0  0  0  0  0  0
  1  2  2  0  0  0  0
  1  3  2  0  0  0  0
  1  4  1  0  0  0  0
  1 14  1  0  0  0  0
  4 10  1  0  0  0  0
  4 39  1  0  0  0  0
  5 18  1  0  0  0  0
  5 20  1  0  0  0  0
  5 21  1  0  0  0  0
  6 18  2  0  0  0  0
  6 22  1  0  0  0  0
  7 23  1  0  0  0  0
  7 24  2  0  0  0  0
  8 23  1  0  0  0  0
  8 26  1  0  0  0  0
  8 48  1  0  0  0  0
  9 11  1  0  0  0  0
  9 12  1  0  0  0  0
  9 17  1  0  0  0  0
  9 27  1  0  0  0  0
 10 12  1  0  0  0  0
 10 13  1  0  0  0  0
 10 28  1  0  0  0  0
 11 13  1  0  0  0  0
 11 18  1  0  0  0  0
 11 29  1  0  0  0  0
 12 30  1  0  0  0  0
 12 31  1  0  0  0  0
 13 32  1  0  0  0  0
 13 33  1  0  0  0  0
 14 15  1  0  0  0  0
 14 16  1  0  0  0  0
 14 34  1  0  0  0  0
 15 16  1  0  0  0  0
 15 35  1  0  0  0  0
 15 36  1  0  0  0  0
 16 37  1  0  0  0  0
 16 38  1  0  0  0  0
 17 19  1  0  0  0  0
 17 40  1  0  0  0  0
 17 41  1  0  0  0  0
 19 42  1  0  0  0  0
 19 43  1  0  0  0  0
 19 44  1  0  0  0  0
 20 22  2  0  0  0  0
 20 24  1  0  0  0  0
 21 23  2  0  0  0  0
 21 25  1  0  0  0  0
 22 45  1  0  0  0  0
 24 46  1  0  0  0  0
 25 26  2  0  0  0  0
 25 47  1  0  0  0  0
 26 49  1  0  0  0  0
M  END
> <PUBCHEM_COMPOUND_CID>
49830715

> <PUBCHEM_COMPOUND_CANONICALIZED>
1

> <PUBCHEM_CACTVS_COMPLEXITY>
634

> <PUBCHEM_CACTVS_HBOND_ACCEPTOR>
5

> <PUBCHEM_CACTVS_HBOND_DONOR>
2

> <PUBCHEM_CACTVS_ROTATABLE_BOND>
5

> <PUBCHEM_CACTVS_SUBSKEYS>
AAADceB7sABAAAAAAAAAAAAAGAAAAeLEAAAsAAAAAAAAAFgB+AAAHAQQQAAADSjFVwS/8L/NmAKgATZnZHDCgC2xEqAJ2aA4dJiIaMJAycEUBAhIEALAQCEQgIAOgAAAAAAAAAAAAAAAAAAAACAACAAAAA==

> <PUBCHEM_IUPAC_OPENEYE_NAME>
N-[3-ethyl-4-(1,5,7,11-tetrazatricyclo[7.3.0.02,6]dodeca-2(6),3,7,9,11-pentaen-12-yl)cyclopentyl]cyclopropanesulfonamide

> <PUBCHEM_IUPAC_CAS_NAME>
N-[3-ethyl-4-(1,5,7,11-tetrazatricyclo[7.3.0.02,6]dodeca-2(6),3,7,9,11-pentaen-12-yl)cyclopentyl]cyclopropanesulfonamide

> <PUBCHEM_IUPAC_NAME_MARKUP>
<I>N</I>-[3-ethyl-4-(1,5,7,11-tetrazatricyclo[7.3.0.0<SUP>2,6</SUP>]dodeca-2(6),3,7,9,11-pentaen-12-yl)cyclopentyl]cyclopropanesulfonamide

> <PUBCHEM_IUPAC_NAME>
N-[3-ethyl-4-(1,5,7,11-tetrazatricyclo[7.3.0.02,6]dodeca-2(6),3,7,9,11-pentaen-12-yl)cyclopentyl]cyclopropanesulfonamide

> <PUBCHEM_IUPAC_SYSTEMATIC_NAME>
N-[3-ethyl-4-(1,5,7,11-tetrazatricyclo[7.3.0.02,6]dodeca-2(6),3,7,9,11-pentaen-12-yl)cyclopentyl]cyclopropanesulfonamide

> <PUBCHEM_IUPAC_TRADITIONAL_NAME>
N-[3-ethyl-4-(1,5,7,11-tetrazatricyclo[7.3.0.02,6]dodeca-2(6),3,7,9,11-pentaen-12-yl)cyclopentyl]cyclopropanesulfonamide

> <PUBCHEM_IUPAC_INCHI>
InChI=1S/C18H23N5O2S/c1-2-11-7-12(22-26(24,25)14-3-4-14)8-15(11)18-21-10-13-9-20-17-16(23(13)18)5-6-19-17/h5-6,9-12,14-15,19,22H,2-4,7-8H2,1H3

> <PUBCHEM_IUPAC_INCHIKEY>
LUPCHAFIKZSOOK-UHFFFAOYSA-N

> <PUBCHEM_XLOGP3_AA>
3

> <PUBCHEM_EXACT_MASS>
373.15724617

> <PUBCHEM_MOLECULAR_FORMULA>
C18H23N5O2S

> <PUBCHEM_MOLECULAR_WEIGHT>
373.5

> <PUBCHEM_SMILES>
CCC1CC(CC1C2=NC=C3N2C4=C(NC=C4)N=C3)NS(=O)(=O)C5CC5

> <PUBCHEM_OPENEYE_CAN_SMILES>
CCC1CC(CC1C2=NC=C3N2C4=C(NC=C4)N=C3)NS(=O)(=O)C5CC5

> <PUBCHEM_OPENEYE_ISO_SMILES>
CCC1CC(CC1C2=NC=C3N2C4=C(NC=C4)N=C3)NS(=O)(=O)C5CC5

> <PUBCHEM_CACTVS_TPSA>
101

> <PUBCHEM_MONOISOTOPIC_WEIGHT>
373.15724617

> <PUBCHEM_TOTAL_CHARGE>
0

> <PUBCHEM_HEAVY_ATOM_COUNT>
26

> <PUBCHEM_ATOM_DEF_STEREO_COUNT>
0

> <PUBCHEM_ATOM_UDEF_STEREO_COUNT>
3

> <PUBCHEM_BOND_DEF_STEREO_COUNT>
0

> <PUBCHEM_BOND_UDEF_STEREO_COUNT>
0

> <PUBCHEM_ISOTOPIC_ATOM_COUNT>
0

> <PUBCHEM_COMPONENT_COUNT>
1

> <PUBCHEM_CACTVS_TAUTO_COUNT>
-1

> <PUBCHEM_COORDINATE_TYPE>
1
5
255

> <PUBCHEM_BONDANNOTATIONS>
11  18  3
20  22  8
20  24  8
21  23  8
21  25  8
25  26  8
10  4  3
5  18  8
5  20  8
5  21  8
6  18  8
6  22  8
7  23  8
7  24  8
8  23  8
8  26  8
9  17  3

$$$$
