49830764
  -OEChem-03202504242D

 47 50  0     0  0  0  0  0  0999 V2000
    2.0000   -3.4330    0.0000 O   0  0  0  0  0  0  0  0  0  0  0  0
    5.4641    3.5670    0.0000 N   0  0  0  0  0  0  0  0  0  0  0  0
    4.5981    2.0670    0.0000 N   0  0  0  0  0  0  0  0  0  0  0  0
    7.2764    2.3717    0.0000 N   0  0  0  0  0  0  0  0  0  0  0  0
    5.4641    0.5670    0.0000 N   0  0  0  0  0  0  0  0  0  0  0  0
    3.7320    0.5670    0.0000 N   0  0  0  0  0  0  0  0  0  0  0  0
    7.2764    0.7623    0.0000 N   0  0  0  0  0  0  0  0  0  0  0  0
    3.7320   -3.4330    0.0000 N   0  0  0  0  0  0  0  0  0  0  0  0
    4.5981    4.0670    0.0000 C   0  0  0  0  0  0  0  0  0  0  0  0
    4.0981    4.9330    0.0000 C   0  0  0  0  0  0  0  0  0  0  0  0
    3.5981    4.0670    0.0000 C   0  0  0  0  0  0  0  0  0  0  0  0
    5.4641    2.5670    0.0000 C   0  0  0  0  0  0  0  0  0  0  0  0
    6.3301    2.0670    0.0000 C   0  0  0  0  0  0  0  0  0  0  0  0
    6.3301    1.0670    0.0000 C   0  0  0  0  0  0  0  0  0  0  0  0
    4.5981    1.0670    0.0000 C   0  0  0  0  0  0  0  0  0  0  0  0
    7.8600    1.5670    0.0000 C   0  0  0  0  0  0  0  0  0  0  0  0
    3.7320   -0.4330    0.0000 C   0  0  0  0  0  0  0  0  0  0  0  0
    3.7320   -2.4330    0.0000 C   0  0  0  0  0  0  0  0  0  0  0  0
    2.8660   -0.9330    0.0000 C   0  0  0  0  0  0  0  0  0  0  0  0
    4.5981   -0.9330    0.0000 C   0  0  0  0  0  0  0  0  0  0  0  0
    4.5981   -3.9330    0.0000 C   0  0  0  0  0  0  0  0  0  0  0  0
    2.8660   -1.9330    0.0000 C   0  0  0  0  0  0  0  0  0  0  0  0
    4.5981   -1.9330    0.0000 C   0  0  0  0  0  0  0  0  0  0  0  0
    2.8660   -3.9330    0.0000 C   0  0  0  0  0  0  0  0  0  0  0  0
    4.5981   -4.9330    0.0000 C   0  0  0  0  0  0  0  0  0  0  0  0
    2.8660   -4.9330    0.0000 C   0  0  0  0  0  0  0  0  0  0  0  0
    5.0365    4.5054    0.0000 H   0  0  0  0  0  0  0  0  0  0  0  0
    4.5730    5.3315    0.0000 H   0  0  0  0  0  0  0  0  0  0  0  0
    3.6231    5.3315    0.0000 H   0  0  0  0  0  0  0  0  0  0  0  0
    3.0155    4.2790    0.0000 H   0  0  0  0  0  0  0  0  0  0  0  0
    3.4904    3.4564    0.0000 H   0  0  0  0  0  0  0  0  0  0  0  0
    6.0010    3.8770    0.0000 H   0  0  0  0  0  0  0  0  0  0  0  0
    7.4690    2.9610    0.0000 H   0  0  0  0  0  0  0  0  0  0  0  0
    8.4800    1.5670    0.0000 H   0  0  0  0  0  0  0  0  0  0  0  0
    3.1951    0.8770    0.0000 H   0  0  0  0  0  0  0  0  0  0  0  0
    2.3291   -0.6230    0.0000 H   0  0  0  0  0  0  0  0  0  0  0  0
    5.1350   -0.6230    0.0000 H   0  0  0  0  0  0  0  0  0  0  0  0
    5.2087   -4.0407    0.0000 H   0  0  0  0  0  0  0  0  0  0  0  0
    4.8101   -3.3504    0.0000 H   0  0  0  0  0  0  0  0  0  0  0  0
    2.3291   -2.2430    0.0000 H   0  0  0  0  0  0  0  0  0  0  0  0
    5.1350   -2.2430    0.0000 H   0  0  0  0  0  0  0  0  0  0  0  0
    3.9781   -4.9330    0.0000 H   0  0  0  0  0  0  0  0  0  0  0  0
    4.5981   -5.5530    0.0000 H   0  0  0  0  0  0  0  0  0  0  0  0
    5.2181   -4.9330    0.0000 H   0  0  0  0  0  0  0  0  0  0  0  0
    2.2460   -4.9330    0.0000 H   0  0  0  0  0  0  0  0  0  0  0  0
    2.8660   -5.5530    0.0000 H   0  0  0  0  0  0  0  0  0  0  0  0
    3.4860   -4.9330    0.0000 H   0  0  0  0  0  0  0  0  0  0  0  0
  1 24  2  0  0  0  0
  2  9  1  0  0  0  0
  2 12  1  0  0  0  0
  2 32  1  0  0  0  0
  3 12  2  0  0  0  0
  3 15  1  0  0  0  0
  4 13  1  0  0  0  0
  4 16  1  0  0  0  0
  4 33  1  0  0  0  0
  5 14  1  0  0  0  0
  5 15  2  0  0  0  0
  6 15  1  0  0  0  0
  6 17  1  0  0  0  0
  6 35  1  0  0  0  0
  7 14  1  0  0  0  0
  7 16  2  0  0  0  0
  8 18  1  0  0  0  0
  8 21  1  0  0  0  0
  8 24  1  0  0  0  0
  9 10  1  0  0  0  0
  9 11  1  0  0  0  0
  9 27  1  0  0  0  0
 10 11  1  0  0  0  0
 10 28  1  0  0  0  0
 10 29  1  0  0  0  0
 11 30  1  0  0  0  0
 11 31  1  0  0  0  0
 12 13  1  0  0  0  0
 13 14  2  0  0  0  0
 16 34  1  0  0  0  0
 17 19  2  0  0  0  0
 17 20  1  0  0  0  0
 18 22  2  0  0  0  0
 18 23  1  0  0  0  0
 19 22  1  0  0  0  0
 19 36  1  0  0  0  0
 20 23  2  0  0  0  0
 20 37  1  0  0  0  0
 21 25  1  0  0  0  0
 21 38  1  0  0  0  0
 21 39  1  0  0  0  0
 22 40  1  0  0  0  0
 23 41  1  0  0  0  0
 24 26  1  0  0  0  0
 25 42  1  0  0  0  0
 25 43  1  0  0  0  0
 25 44  1  0  0  0  0
 26 45  1  0  0  0  0
 26 46  1  0  0  0  0
 26 47  1  0  0  0  0
M  END
> <PUBCHEM_COMPOUND_CID>
49830764

> <PUBCHEM_COMPOUND_CANONICALIZED>
1

> <PUBCHEM_CACTVS_COMPLEXITY>
492

> <PUBCHEM_CACTVS_HBOND_ACCEPTOR>
6

> <PUBCHEM_CACTVS_HBOND_DONOR>
3

> <PUBCHEM_CACTVS_ROTATABLE_BOND>
6

> <PUBCHEM_CACTVS_SUBSKEYS>
AAADceB7oAAAAAAAAAAAAAAAGAAAAWAAAAA8QAAAAAAAAFgB/AAAHgAQAAAACCjBlwQ38L/JkACoASdzdACCgC2xEqAJ2aAodJiIaCLA2dGUJAholgLIyCcQAAAAAACAAAAAAAAAAQAAAAAAAAAAAAAAAA==

> <PUBCHEM_IUPAC_OPENEYE_NAME>
N-[4-[[6-(cyclopropylamino)-7H-purin-2-yl]amino]phenyl]-N-ethyl-acetamide

> <PUBCHEM_IUPAC_CAS_NAME>
N-[4-[[6-(cyclopropylamino)-7H-purin-2-yl]amino]phenyl]-N-ethylacetamide

> <PUBCHEM_IUPAC_NAME_MARKUP>
<I>N</I>-[4-[[6-(cyclopropylamino)-7<I>H</I>-purin-2-yl]amino]phenyl]-<I>N</I>-ethylacetamide

> <PUBCHEM_IUPAC_NAME>
N-[4-[[6-(cyclopropylamino)-7H-purin-2-yl]amino]phenyl]-N-ethylacetamide

> <PUBCHEM_IUPAC_SYSTEMATIC_NAME>
N-[4-[[6-(cyclopropylamino)-7H-purin-2-yl]amino]phenyl]-N-ethyl-ethanamide

> <PUBCHEM_IUPAC_TRADITIONAL_NAME>
N-[4-[[6-(cyclopropylamino)-7H-purin-2-yl]amino]phenyl]-N-ethyl-acetamide

> <PUBCHEM_IUPAC_INCHI>
InChI=1S/C18H21N7O/c1-3-25(11(2)26)14-8-6-13(7-9-14)22-18-23-16-15(19-10-20-16)17(24-18)21-12-4-5-12/h6-10,12H,3-5H2,1-2H3,(H3,19,20,21,22,23,24)

> <PUBCHEM_IUPAC_INCHIKEY>
PROLIXHVRCJEFH-UHFFFAOYSA-N

> <PUBCHEM_XLOGP3_AA>
2.6

> <PUBCHEM_EXACT_MASS>
351.18075832

> <PUBCHEM_MOLECULAR_FORMULA>
C18H21N7O

> <PUBCHEM_MOLECULAR_WEIGHT>
351.4

> <PUBCHEM_SMILES>
CCN(C1=CC=C(C=C1)NC2=NC3=C(C(=N2)NC4CC4)NC=N3)C(=O)C

> <PUBCHEM_OPENEYE_CAN_SMILES>
CCN(C1=CC=C(C=C1)NC2=NC3=C(C(=N2)NC4CC4)NC=N3)C(=O)C

> <PUBCHEM_OPENEYE_ISO_SMILES>
CCN(C1=CC=C(C=C1)NC2=NC3=C(C(=N2)NC4CC4)NC=N3)C(=O)C

> <PUBCHEM_CACTVS_TPSA>
98.8

> <PUBCHEM_MONOISOTOPIC_WEIGHT>
351.18075832

> <PUBCHEM_TOTAL_CHARGE>
0

> <PUBCHEM_HEAVY_ATOM_COUNT>
26

> <PUBCHEM_ATOM_DEF_STEREO_COUNT>
0

> <PUBCHEM_ATOM_UDEF_STEREO_COUNT>
0

> <PUBCHEM_BOND_DEF_STEREO_COUNT>
0

> <PUBCHEM_BOND_UDEF_STEREO_COUNT>
0

> <PUBCHEM_ISOTOPIC_ATOM_COUNT>
0

> <PUBCHEM_COMPONENT_COUNT>
1

> <PUBCHEM_CACTVS_TAUTO_COUNT>
-1

> <PUBCHEM_COORDINATE_TYPE>
1
5
255

> <PUBCHEM_BONDANNOTATIONS>
12  13  8
13  14  8
17  19  8
17  20  8
18  22  8
18  23  8
19  22  8
20  23  8
3  12  8
3  15  8
4  13  8
4  16  8
5  14  8
5  15  8
7  14  8
7  16  8

$$$$
