11306240
  -OEChem-03202503542D

 64 67  0     0  0  0  0  0  0999 V2000
    6.4103   -1.3680    0.0000 S   0  0  0  0  0  0  0  0  0  0  0  0
    9.2993    3.5055    0.0000 O   0  0  0  0  0  0  0  0  0  0  0  0
    3.7320   -5.0633    0.0000 N   0  0  0  0  0  0  0  0  0  0  0  0
    3.7320   -0.0633    0.0000 N   0  0  0  0  0  0  0  0  0  0  0  0
    4.5981    1.4367    0.0000 N   0  0  0  0  0  0  0  0  0  0  0  0
    7.6530    4.0436    0.0000 N   0  0  0  0  0  0  0  0  0  0  0  0
    8.9421    5.2003    0.0000 N   0  0  0  0  0  0  0  0  0  0  0  0
    5.4641   -0.0633    0.0000 C   0  0  0  0  0  0  0  0  0  0  0  0
    6.4103    0.2415    0.0000 C   0  0  0  0  0  0  0  0  0  0  0  0
    5.4641   -1.0633    0.0000 C   0  0  0  0  0  0  0  0  0  0  0  0
    6.7210    1.1920    0.0000 C   0  0  0  0  0  0  0  0  0  0  0  0
    3.7320   -6.0633    0.0000 C   0  0  0  0  0  0  0  0  0  0  0  0
    2.8660   -4.5633    0.0000 C   0  0  0  0  0  0  0  0  0  0  0  0
    6.9939   -0.5633    0.0000 C   0  0  0  0  0  0  0  0  0  0  0  0
    4.5981   -1.5633    0.0000 C   0  0  0  0  0  0  0  0  0  0  0  0
    4.5981    0.4367    0.0000 C   0  0  0  0  0  0  0  0  0  0  0  0
    4.5981   -4.5633    0.0000 C   0  0  0  0  0  0  0  0  0  0  0  0
    7.6995    1.3982    0.0000 C   0  0  0  0  0  0  0  0  0  0  0  0
    6.0531    1.9363    0.0000 C   0  0  0  0  0  0  0  0  0  0  0  0
    7.3423    3.0930    0.0000 C   0  0  0  0  0  0  0  0  0  0  0  0
    3.7320   -1.0633    0.0000 C   0  0  0  0  0  0  0  0  0  0  0  0
    8.0102    2.3487    0.0000 C   0  0  0  0  0  0  0  0  0  0  0  0
    6.3638    2.8868    0.0000 C   0  0  0  0  0  0  0  0  0  0  0  0
    2.8660   -6.5633    0.0000 C   0  0  0  0  0  0  0  0  0  0  0  0
    2.0000   -5.0633    0.0000 C   0  0  0  0  0  0  0  0  0  0  0  0
    4.5981   -2.5633    0.0000 C   0  0  0  0  0  0  0  0  0  0  0  0
    4.5981   -3.5633    0.0000 C   0  0  0  0  0  0  0  0  0  0  0  0
    8.6315    4.2498    0.0000 C   0  0  0  0  0  0  0  0  0  0  0  0
    9.9206    5.4065    0.0000 C   0  0  0  0  0  0  0  0  0  0  0  0
   10.5885    4.6622    0.0000 C   0  0  0  0  0  0  0  0  0  0  0  0
   11.5670    4.8684    0.0000 C   0  0  0  0  0  0  0  0  0  0  0  0
   10.2313    6.3570    0.0000 C   0  0  0  0  0  0  0  0  0  0  0  0
   11.8777    5.8190    0.0000 C   0  0  0  0  0  0  0  0  0  0  0  0
   11.2098    6.5633    0.0000 C   0  0  0  0  0  0  0  0  0  0  0  0
   12.2348    4.1241    0.0000 C   0  0  0  0  0  0  0  0  0  0  0  0
    3.9441   -6.6459    0.0000 H   0  0  0  0  0  0  0  0  0  0  0  0
    4.3426   -5.9556    0.0000 H   0  0  0  0  0  0  0  0  0  0  0  0
    3.2646   -4.0883    0.0000 H   0  0  0  0  0  0  0  0  0  0  0  0
    2.4675   -4.0883    0.0000 H   0  0  0  0  0  0  0  0  0  0  0  0
    7.6139   -0.5633    0.0000 H   0  0  0  0  0  0  0  0  0  0  0  0
    4.8101   -5.1459    0.0000 H   0  0  0  0  0  0  0  0  0  0  0  0
    5.2087   -4.4556    0.0000 H   0  0  0  0  0  0  0  0  0  0  0  0
    8.1136    0.9367    0.0000 H   0  0  0  0  0  0  0  0  0  0  0  0
    5.4465    1.8084    0.0000 H   0  0  0  0  0  0  0  0  0  0  0  0
    3.1951   -1.3733    0.0000 H   0  0  0  0  0  0  0  0  0  0  0  0
    8.6168    2.4766    0.0000 H   0  0  0  0  0  0  0  0  0  0  0  0
    5.9497    3.3483    0.0000 H   0  0  0  0  0  0  0  0  0  0  0  0
    2.5560   -6.0263    0.0000 H   0  0  0  0  0  0  0  0  0  0  0  0
    2.3291   -6.8733    0.0000 H   0  0  0  0  0  0  0  0  0  0  0  0
    3.1760   -7.1002    0.0000 H   0  0  0  0  0  0  0  0  0  0  0  0
    1.6900   -4.5263    0.0000 H   0  0  0  0  0  0  0  0  0  0  0  0
    1.4631   -5.3733    0.0000 H   0  0  0  0  0  0  0  0  0  0  0  0
    2.3100   -5.6002    0.0000 H   0  0  0  0  0  0  0  0  0  0  0  0
    7.2389    4.5050    0.0000 H   0  0  0  0  0  0  0  0  0  0  0  0
    4.0611    1.7467    0.0000 H   0  0  0  0  0  0  0  0  0  0  0  0
    5.1350    1.7467    0.0000 H   0  0  0  0  0  0  0  0  0  0  0  0
    8.5281    5.6618    0.0000 H   0  0  0  0  0  0  0  0  0  0  0  0
   10.3959    4.0729    0.0000 H   0  0  0  0  0  0  0  0  0  0  0  0
    9.8172    6.8185    0.0000 H   0  0  0  0  0  0  0  0  0  0  0  0
   12.4843    5.9468    0.0000 H   0  0  0  0  0  0  0  0  0  0  0  0
   11.4024    7.1526    0.0000 H   0  0  0  0  0  0  0  0  0  0  0  0
   11.7734    3.7101    0.0000 H   0  0  0  0  0  0  0  0  0  0  0  0
   12.6489    3.6627    0.0000 H   0  0  0  0  0  0  0  0  0  0  0  0
   12.6963    4.5382    0.0000 H   0  0  0  0  0  0  0  0  0  0  0  0
  1 10  1  0  0  0  0
  1 14  1  0  0  0  0
  2 28  2  0  0  0  0
  3 12  1  0  0  0  0
  3 13  1  0  0  0  0
  3 17  1  0  0  0  0
  4 16  2  0  0  0  0
  4 21  1  0  0  0  0
  5 16  1  0  0  0  0
  5 55  1  0  0  0  0
  5 56  1  0  0  0  0
  6 20  1  0  0  0  0
  6 28  1  0  0  0  0
  6 54  1  0  0  0  0
  7 28  1  0  0  0  0
  7 29  1  0  0  0  0
  7 57  1  0  0  0  0
  8  9  1  0  0  0  0
  8 10  2  0  0  0  0
  8 16  1  0  0  0  0
  9 11  1  0  0  0  0
  9 14  2  0  0  0  0
 10 15  1  0  0  0  0
 11 18  2  0  0  0  0
 11 19  1  0  0  0  0
 12 24  1  0  0  0  0
 12 36  1  0  0  0  0
 12 37  1  0  0  0  0
 13 25  1  0  0  0  0
 13 38  1  0  0  0  0
 13 39  1  0  0  0  0
 14 40  1  0  0  0  0
 15 21  2  0  0  0  0
 15 26  1  0  0  0  0
 17 27  1  0  0  0  0
 17 41  1  0  0  0  0
 17 42  1  0  0  0  0
 18 22  1  0  0  0  0
 18 43  1  0  0  0  0
 19 23  2  0  0  0  0
 19 44  1  0  0  0  0
 20 22  2  0  0  0  0
 20 23  1  0  0  0  0
 21 45  1  0  0  0  0
 22 46  1  0  0  0  0
 23 47  1  0  0  0  0
 24 48  1  0  0  0  0
 24 49  1  0  0  0  0
 24 50  1  0  0  0  0
 25 51  1  0  0  0  0
 25 52  1  0  0  0  0
 25 53  1  0  0  0  0
 26 27  3  0  0  0  0
 29 30  1  0  0  0  0
 29 32  2  0  0  0  0
 30 31  2  0  0  0  0
 30 58  1  0  0  0  0
 31 33  1  0  0  0  0
 31 35  1  0  0  0  0
 32 34  1  0  0  0  0
 32 59  1  0  0  0  0
 33 34  2  0  0  0  0
 33 60  1  0  0  0  0
 34 61  1  0  0  0  0
 35 62  1  0  0  0  0
 35 63  1  0  0  0  0
 35 64  1  0  0  0  0
M  END
> <PUBCHEM_COMPOUND_CID>
11306240

> <PUBCHEM_COMPOUND_CANONICALIZED>
1

> <PUBCHEM_CACTVS_COMPLEXITY>
753

> <PUBCHEM_CACTVS_HBOND_ACCEPTOR>
5

> <PUBCHEM_CACTVS_HBOND_DONOR>
3

> <PUBCHEM_CACTVS_ROTATABLE_BOND>
7

> <PUBCHEM_CACTVS_SUBSKEYS>
AAADceB7oABAAAAAAAAAAAAAAAAAASAAAAA8YIAAAAAAAFgB/AAAHgQQAAAADAjFWgS/8dPIEAjsEjZndAiDgKkxCjAI2DAoZJiIIGLgkZGEIAxolALoyCcQgMAOiAAAQAAAAAAQAACAAAAAAAAAAAAAAA==

> <PUBCHEM_IUPAC_OPENEYE_NAME>
1-[4-[4-amino-7-[3-(diethylamino)prop-1-ynyl]thieno[3,2-c]pyridin-3-yl]phenyl]-3-(m-tolyl)urea

> <PUBCHEM_IUPAC_CAS_NAME>
1-[4-[4-amino-7-[3-(diethylamino)prop-1-ynyl]-3-thieno[3,2-c]pyridinyl]phenyl]-3-(3-methylphenyl)urea

> <PUBCHEM_IUPAC_NAME_MARKUP>
1-[4-[4-amino-7-[3-(diethylamino)prop-1-ynyl]thieno[3,2-c]pyridin-3-yl]phenyl]-3-(3-methylphenyl)urea

> <PUBCHEM_IUPAC_NAME>
1-[4-[4-amino-7-[3-(diethylamino)prop-1-ynyl]thieno[3,2-c]pyridin-3-yl]phenyl]-3-(3-methylphenyl)urea

> <PUBCHEM_IUPAC_SYSTEMATIC_NAME>
1-[4-[4-azanyl-7-[3-(diethylamino)prop-1-ynyl]thieno[3,2-c]pyridin-3-yl]phenyl]-3-(3-methylphenyl)urea

> <PUBCHEM_IUPAC_TRADITIONAL_NAME>
1-[4-[4-amino-7-[3-(diethylamino)prop-1-ynyl]thieno[3,2-c]pyridin-3-yl]phenyl]-3-(m-tolyl)urea

> <PUBCHEM_IUPAC_INCHI>
InChI=1S/C28H29N5OS/c1-4-33(5-2)15-7-9-21-17-30-27(29)25-24(18-35-26(21)25)20-11-13-22(14-12-20)31-28(34)32-23-10-6-8-19(3)16-23/h6,8,10-14,16-18H,4-5,15H2,1-3H3,(H2,29,30)(H2,31,32,34)

> <PUBCHEM_IUPAC_INCHIKEY>
SEVCBWKJSOLMNQ-UHFFFAOYSA-N

> <PUBCHEM_XLOGP3_AA>
5

> <PUBCHEM_EXACT_MASS>
483.20928174

> <PUBCHEM_MOLECULAR_FORMULA>
C28H29N5OS

> <PUBCHEM_MOLECULAR_WEIGHT>
483.6

> <PUBCHEM_SMILES>
CCN(CC)CC#CC1=CN=C(C2=C1SC=C2C3=CC=C(C=C3)NC(=O)NC4=CC=CC(=C4)C)N

> <PUBCHEM_OPENEYE_CAN_SMILES>
CCN(CC)CC#CC1=CN=C(C2=C1SC=C2C3=CC=C(C=C3)NC(=O)NC4=CC=CC(=C4)C)N

> <PUBCHEM_OPENEYE_ISO_SMILES>
CCN(CC)CC#CC1=CN=C(C2=C1SC=C2C3=CC=C(C=C3)NC(=O)NC4=CC=CC(=C4)C)N

> <PUBCHEM_CACTVS_TPSA>
112

> <PUBCHEM_MONOISOTOPIC_WEIGHT>
483.20928174

> <PUBCHEM_TOTAL_CHARGE>
0

> <PUBCHEM_HEAVY_ATOM_COUNT>
35

> <PUBCHEM_ATOM_DEF_STEREO_COUNT>
0

> <PUBCHEM_ATOM_UDEF_STEREO_COUNT>
0

> <PUBCHEM_BOND_DEF_STEREO_COUNT>
0

> <PUBCHEM_BOND_UDEF_STEREO_COUNT>
0

> <PUBCHEM_ISOTOPIC_ATOM_COUNT>
0

> <PUBCHEM_COMPONENT_COUNT>
1

> <PUBCHEM_CACTVS_TAUTO_COUNT>
-1

> <PUBCHEM_COORDINATE_TYPE>
1
5
255

> <PUBCHEM_BONDANNOTATIONS>
1  10  8
1  14  8
10  15  8
11  18  8
11  19  8
15  21  8
18  22  8
19  23  8
20  22  8
20  23  8
29  30  8
29  32  8
30  31  8
31  33  8
32  34  8
33  34  8
4  16  8
4  21  8
8  10  8
8  16  8
8  9  8
9  14  8

$$$$
