11328863
  -OEChem-03202505472D

 58 63  0     0  0  0  0  0  0999 V2000
    5.5883    3.9449    0.0000 O   0  0  0  0  0  0  0  0  0  0  0  0
    7.1488    3.1934    0.0000 O   0  0  0  0  0  0  0  0  0  0  0  0
    2.0000   -1.5151    0.0000 O   0  0  0  0  0  0  0  0  0  0  0  0
    3.6283   -4.6360    0.0000 O   0  0  0  0  0  0  0  0  0  0  0  0
    4.3167    0.4610    0.0000 N   0  0  0  0  0  0  0  0  0  0  0  0
    5.7177    2.2177    0.0000 N   0  0  0  0  0  0  0  0  0  0  0  0
    2.5670   -3.2045    0.0000 N   0  0  0  0  0  0  0  0  0  0  0  0
    5.6108   -3.9646    0.0000 N   0  0  0  0  0  0  0  0  0  0  0  0
    6.7384   -2.8130    0.0000 N   0  0  0  0  0  0  0  0  0  0  0  0
    5.2177    0.0271    0.0000 C   0  0  0  0  0  0  0  0  0  0  0  0
    4.0942    1.4359    0.0000 C   0  0  0  0  0  0  0  0  0  0  0  0
    5.1239   -1.0103    0.0000 C   0  0  0  0  0  0  0  0  0  0  0  0
    6.1187    0.4610    0.0000 C   0  0  0  0  0  0  0  0  0  0  0  0
    4.1454   -1.1541    0.0000 C   0  0  0  0  0  0  0  0  0  0  0  0
    4.7177    2.2177    0.0000 C   0  0  0  0  0  0  0  0  0  0  0  0
    6.3412    1.4359    0.0000 C   0  0  0  0  0  0  0  0  0  0  0  0
    3.6697   -0.2870    0.0000 C   0  0  0  0  0  0  0  0  0  0  0  0
    3.7000   -2.0494    0.0000 C   0  0  0  0  0  0  0  0  0  0  0  0
    5.9800   -1.6037    0.0000 C   0  0  0  0  0  0  0  0  0  0  0  0
    6.9883   -0.1125    0.0000 C   0  0  0  0  0  0  0  0  0  0  0  0
    4.1626   -2.9360    0.0000 C   0  0  0  0  0  0  0  0  0  0  0  0
    6.9184   -1.1518    0.0000 C   0  0  0  0  0  0  0  0  0  0  0  0
    6.1516    3.1187    0.0000 C   0  0  0  0  0  0  0  0  0  0  0  0
    2.7139   -2.2154    0.0000 C   0  0  0  0  0  0  0  0  0  0  0  0
    5.1518   -3.0829    0.0000 C   0  0  0  0  0  0  0  0  0  0  0  0
    3.4624   -3.6499    0.0000 C   0  0  0  0  0  0  0  0  0  0  0  0
    5.8472   -2.3726    0.0000 C   0  0  0  0  0  0  0  0  0  0  0  0
    6.5967   -3.7969    0.0000 C   0  0  0  0  0  0  0  0  0  0  0  0
    6.0222    4.8459    0.0000 C   0  0  0  0  0  0  0  0  0  0  0  0
    5.2631   -4.9022    0.0000 C   0  0  0  0  0  0  0  0  0  0  0  0
    7.2348   -4.5669    0.0000 C   0  0  0  0  0  0  0  0  0  0  0  0
    5.4588    5.6721    0.0000 C   0  0  0  0  0  0  0  0  0  0  0  0
    7.0194    4.9206    0.0000 C   0  0  0  0  0  0  0  0  0  0  0  0
    5.9012   -5.6721    0.0000 C   0  0  0  0  0  0  0  0  0  0  0  0
    6.8871   -5.5045    0.0000 C   0  0  0  0  0  0  0  0  0  0  0  0
    3.7077    1.9206    0.0000 H   0  0  0  0  0  0  0  0  0  0  0  0
    3.5356    1.1669    0.0000 H   0  0  0  0  0  0  0  0  0  0  0  0
    4.8557    2.8222    0.0000 H   0  0  0  0  0  0  0  0  0  0  0  0
    4.1591    2.4867    0.0000 H   0  0  0  0  0  0  0  0  0  0  0  0
    6.8998    1.1669    0.0000 H   0  0  0  0  0  0  0  0  0  0  0  0
    6.7278    1.9206    0.0000 H   0  0  0  0  0  0  0  0  0  0  0  0
    3.0532   -0.2216    0.0000 H   0  0  0  0  0  0  0  0  0  0  0  0
    5.9312   -2.2218    0.0000 H   0  0  0  0  0  0  0  0  0  0  0  0
    7.5437    0.1630    0.0000 H   0  0  0  0  0  0  0  0  0  0  0  0
    7.4320   -1.4990    0.0000 H   0  0  0  0  0  0  0  0  0  0  0  0
    2.0173   -3.4913    0.0000 H   0  0  0  0  0  0  0  0  0  0  0  0
    5.7433   -1.7614    0.0000 H   0  0  0  0  0  0  0  0  0  0  0  0
    6.3714    4.3336    0.0000 H   0  0  0  0  0  0  0  0  0  0  0  0
    4.6519   -5.0062    0.0000 H   0  0  0  0  0  0  0  0  0  0  0  0
    7.8460   -4.4629    0.0000 H   0  0  0  0  0  0  0  0  0  0  0  0
    5.9711    6.0214    0.0000 H   0  0  0  0  0  0  0  0  0  0  0  0
    5.1096    6.1844    0.0000 H   0  0  0  0  0  0  0  0  0  0  0  0
    4.9466    5.3229    0.0000 H   0  0  0  0  0  0  0  0  0  0  0  0
    7.0657    4.3024    0.0000 H   0  0  0  0  0  0  0  0  0  0  0  0
    7.6376    4.9670    0.0000 H   0  0  0  0  0  0  0  0  0  0  0  0
    6.9730    5.5389    0.0000 H   0  0  0  0  0  0  0  0  0  0  0  0
    5.6856   -6.2534    0.0000 H   0  0  0  0  0  0  0  0  0  0  0  0
    7.2827   -5.9818    0.0000 H   0  0  0  0  0  0  0  0  0  0  0  0
  1 23  1  0  0  0  0
  1 29  1  0  0  0  0
  2 23  2  0  0  0  0
  3 24  2  0  0  0  0
  4 26  2  0  0  0  0
  5 10  1  0  0  0  0
  5 11  1  0  0  0  0
  5 17  1  0  0  0  0
  6 15  1  0  0  0  0
  6 16  1  0  0  0  0
  6 23  1  0  0  0  0
  7 24  1  0  0  0  0
  7 26  1  0  0  0  0
  7 46  1  0  0  0  0
  8 25  1  0  0  0  0
  8 28  1  0  0  0  0
  8 30  1  0  0  0  0
  9 27  1  0  0  0  0
  9 28  2  0  0  0  0
 10 12  1  0  0  0  0
 10 13  2  0  0  0  0
 11 15  1  0  0  0  0
 11 36  1  0  0  0  0
 11 37  1  0  0  0  0
 12 14  1  0  0  0  0
 12 19  2  0  0  0  0
 13 16  1  0  0  0  0
 13 20  1  0  0  0  0
 14 17  2  0  0  0  0
 14 18  1  0  0  0  0
 15 38  1  0  0  0  0
 15 39  1  0  0  0  0
 16 40  1  0  0  0  0
 16 41  1  0  0  0  0
 17 42  1  0  0  0  0
 18 21  2  0  0  0  0
 18 24  1  0  0  0  0
 19 22  1  0  0  0  0
 19 43  1  0  0  0  0
 20 22  2  0  0  0  0
 20 44  1  0  0  0  0
 21 25  1  0  0  0  0
 21 26  1  0  0  0  0
 22 45  1  0  0  0  0
 25 27  2  0  0  0  0
 27 47  1  0  0  0  0
 28 31  1  0  0  0  0
 29 32  1  0  0  0  0
 29 33  1  0  0  0  0
 29 48  1  0  0  0  0
 30 34  2  0  0  0  0
 30 49  1  0  0  0  0
 31 35  2  0  0  0  0
 31 50  1  0  0  0  0
 32 51  1  0  0  0  0
 32 52  1  0  0  0  0
 32 53  1  0  0  0  0
 33 54  1  0  0  0  0
 33 55  1  0  0  0  0
 33 56  1  0  0  0  0
 34 35  1  0  0  0  0
 34 57  1  0  0  0  0
 35 58  1  0  0  0  0
M  END
> <PUBCHEM_COMPOUND_CID>
11328863

> <PUBCHEM_COMPOUND_CANONICALIZED>
1

> <PUBCHEM_CACTVS_COMPLEXITY>
935

> <PUBCHEM_CACTVS_HBOND_ACCEPTOR>
5

> <PUBCHEM_CACTVS_HBOND_DONOR>
1

> <PUBCHEM_CACTVS_ROTATABLE_BOND>
4

> <PUBCHEM_CACTVS_SUBSKEYS>
AAADceB7uAAAAAAAAAAAAAAAAAAAAWLEAAA8QAAABYAAAFix/gAAHgAQAAAADBzhnwY/+P/MHACoAzd3fACCgC0xEqAJ2CE4dNiIaPrA3ZGcIAhohiLIySccicCegAACAAACAAAAAAQAAAQAAAAAAAAAAA==

> <PUBCHEM_IUPAC_OPENEYE_NAME>
isopropyl 3-(4-imidazo[1,2-a]pyridin-3-yl-2,5-dioxo-pyrrol-3-yl)-1,10-diazatricyclo[6.4.1.04,13]trideca-2,4,6,8(13)-tetraene-10-carboxylate

> <PUBCHEM_IUPAC_CAS_NAME>
3-[4-(3-imidazo[1,2-a]pyridinyl)-2,5-dioxo-3-pyrrolyl]-1,10-diazatricyclo[6.4.1.04,13]trideca-2,4,6,8(13)-tetraene-10-carboxylic acid propan-2-yl ester

> <PUBCHEM_IUPAC_NAME_MARKUP>
propan-2-yl 3-(4-imidazo[1,2-a]pyridin-3-yl-2,5-dioxopyrrol-3-yl)-1,10-diazatricyclo[6.4.1.0<SUP>4,13</SUP>]trideca-2,4,6,8(13)-tetraene-10-carboxylate

> <PUBCHEM_IUPAC_NAME>
propan-2-yl 3-(4-imidazo[1,2-a]pyridin-3-yl-2,5-dioxopyrrol-3-yl)-1,10-diazatricyclo[6.4.1.04,13]trideca-2,4,6,8(13)-tetraene-10-carboxylate

> <PUBCHEM_IUPAC_SYSTEMATIC_NAME>
propan-2-yl 3-[4-imidazo[1,2-a]pyridin-3-yl-2,5-bis(oxidanylidene)pyrrol-3-yl]-1,10-diazatricyclo[6.4.1.04,13]trideca-2,4,6,8(13)-tetraene-10-carboxylate

> <PUBCHEM_IUPAC_TRADITIONAL_NAME>
3-(4-imidazo[1,2-a]pyridin-3-yl-2,5-diketo-3-pyrrolin-3-yl)-1,10-diazatricyclo[6.4.1.04,13]trideca-2,4,6,8(13)-tetraene-10-carboxylic acid isopropyl ester

> <PUBCHEM_IUPAC_INCHI>
InChI=1S/C26H23N5O4/c1-15(2)35-26(34)30-11-10-29-14-18(17-7-5-6-16(13-30)23(17)29)21-22(25(33)28-24(21)32)19-12-27-20-8-3-4-9-31(19)20/h3-9,12,14-15H,10-11,13H2,1-2H3,(H,28,32,33)

> <PUBCHEM_IUPAC_INCHIKEY>
GCNSUXMONRYRHL-UHFFFAOYSA-N

> <PUBCHEM_XLOGP3_AA>
2.7

> <PUBCHEM_EXACT_MASS>
469.17500423

> <PUBCHEM_MOLECULAR_FORMULA>
C26H23N5O4

> <PUBCHEM_MOLECULAR_WEIGHT>
469.5

> <PUBCHEM_SMILES>
CC(C)OC(=O)N1CCN2C=C(C3=CC=CC(=C32)C1)C4=C(C(=O)NC4=O)C5=CN=C6N5C=CC=C6

> <PUBCHEM_OPENEYE_CAN_SMILES>
CC(C)OC(=O)N1CCN2C=C(C3=CC=CC(=C32)C1)C4=C(C(=O)NC4=O)C5=CN=C6N5C=CC=C6

> <PUBCHEM_OPENEYE_ISO_SMILES>
CC(C)OC(=O)N1CCN2C=C(C3=CC=CC(=C32)C1)C4=C(C(=O)NC4=O)C5=CN=C6N5C=CC=C6

> <PUBCHEM_CACTVS_TPSA>
97.9

> <PUBCHEM_MONOISOTOPIC_WEIGHT>
469.17500423

> <PUBCHEM_TOTAL_CHARGE>
0

> <PUBCHEM_HEAVY_ATOM_COUNT>
35

> <PUBCHEM_ATOM_DEF_STEREO_COUNT>
0

> <PUBCHEM_ATOM_UDEF_STEREO_COUNT>
0

> <PUBCHEM_BOND_DEF_STEREO_COUNT>
0

> <PUBCHEM_BOND_UDEF_STEREO_COUNT>
0

> <PUBCHEM_ISOTOPIC_ATOM_COUNT>
0

> <PUBCHEM_COMPONENT_COUNT>
1

> <PUBCHEM_CACTVS_TAUTO_COUNT>
-1

> <PUBCHEM_COORDINATE_TYPE>
1
5
255

> <PUBCHEM_BONDANNOTATIONS>
10  12  8
10  13  8
12  14  8
12  19  8
13  20  8
14  17  8
19  22  8
20  22  8
25  27  8
28  31  8
30  34  8
31  35  8
34  35  8
5  10  8
5  17  8
8  25  8
8  28  8
8  30  8
9  27  8
9  28  8

$$$$
