135927974
  -OEChem-03202507082D

 47 51  0     1  0  0  0  0  0999 V2000
    7.4775    2.8591    0.0000 S   0  0  0  0  0  0  0  0  0  0  0  0
    8.2692   -2.8413    0.0000 O   0  0  0  0  0  0  0  0  0  0  0  0
    9.5999    3.4582    0.0000 O   0  0  0  0  0  0  0  0  0  0  0  0
    2.6069   -2.2386    0.0000 O   0  0  0  0  0  0  0  0  0  0  0  0
   10.0365   -0.9513    0.0000 N   0  0  3  0  0  0  0  0  0  0  0  0
   10.0048    1.7349    0.0000 N   0  0  0  0  0  0  0  0  0  0  0  0
    8.6624    0.5356    0.0000 N   0  0  0  0  0  0  0  0  0  0  0  0
    9.0804   -2.2566    0.0000 C   0  0  2  0  0  0  0  0  0  0  0  0
    9.0843   -1.2567    0.0000 C   0  0  0  0  0  0  0  0  0  0  0  0
   10.0303   -2.5693    0.0000 C   0  0  0  0  0  0  0  0  0  0  0  0
   10.6212   -1.7626    0.0000 C   0  0  0  0  0  0  0  0  0  0  0  0
   10.3492   -0.0015    0.0000 C   0  0  0  0  0  0  0  0  0  0  0  0
    9.6829    0.7443    0.0000 C   0  0  0  0  0  0  0  0  0  0  0  0
    7.9775    1.3203    0.0000 C   0  0  0  0  0  0  0  0  0  0  0  0
    6.9775    1.3203    0.0000 C   0  0  0  0  0  0  0  0  0  0  0  0
    8.2865    2.2714    0.0000 C   0  0  0  0  0  0  0  0  0  0  0  0
    9.3019    2.5036    0.0000 C   0  0  0  0  0  0  0  0  0  0  0  0
    6.6684    2.2714    0.0000 C   0  0  0  0  0  0  0  0  0  0  0  0
    6.2925    0.5356    0.0000 C   0  0  0  0  0  0  0  0  0  0  0  0
    5.2720    0.7443    0.0000 C   0  0  0  0  0  0  0  0  0  0  0  0
    5.6530    2.5036    0.0000 C   0  0  0  0  0  0  0  0  0  0  0  0
    4.9501    1.7349    0.0000 C   0  0  0  0  0  0  0  0  0  0  0  0
    4.6057   -0.0015    0.0000 C   0  0  0  0  0  0  0  0  0  0  0  0
    3.6268    0.2027    0.0000 C   0  0  0  0  0  0  0  0  0  0  0  0
    4.9184   -0.9513    0.0000 C   0  0  0  0  0  0  0  0  0  0  0  0
    2.9605   -0.5430    0.0000 C   0  0  0  0  0  0  0  0  0  0  0  0
    4.2522   -1.6970    0.0000 C   0  0  0  0  0  0  0  0  0  0  0  0
    3.2732   -1.4929    0.0000 C   0  0  0  0  0  0  0  0  0  0  0  0
    9.1751   -2.8694    0.0000 H   0  0  0  0  0  0  0  0  0  0  0  0
    8.9577   -0.6497    0.0000 H   0  0  0  0  0  0  0  0  0  0  0  0
    8.4674   -1.3191    0.0000 H   0  0  0  0  0  0  0  0  0  0  0  0
    9.7759   -3.1348    0.0000 H   0  0  0  0  0  0  0  0  0  0  0  0
   10.5660   -2.8814    0.0000 H   0  0  0  0  0  0  0  0  0  0  0  0
   11.0803   -2.1792    0.0000 H   0  0  0  0  0  0  0  0  0  0  0  0
   11.0835   -1.3495    0.0000 H   0  0  0  0  0  0  0  0  0  0  0  0
   10.8955   -0.2946    0.0000 H   0  0  0  0  0  0  0  0  0  0  0  0
   10.7328    0.4856    0.0000 H   0  0  0  0  0  0  0  0  0  0  0  0
    8.3316   -3.4582    0.0000 H   0  0  0  0  0  0  0  0  0  0  0  0
   10.6108    1.8662    0.0000 H   0  0  0  0  0  0  0  0  0  0  0  0
    6.4909   -0.0518    0.0000 H   0  0  0  0  0  0  0  0  0  0  0  0
    5.4683    3.0954    0.0000 H   0  0  0  0  0  0  0  0  0  0  0  0
    4.3442    1.8662    0.0000 H   0  0  0  0  0  0  0  0  0  0  0  0
    3.4329    0.7916    0.0000 H   0  0  0  0  0  0  0  0  0  0  0  0
    5.5254   -1.0779    0.0000 H   0  0  0  0  0  0  0  0  0  0  0  0
    2.3536   -0.4165    0.0000 H   0  0  0  0  0  0  0  0  0  0  0  0
    4.4460   -2.2859    0.0000 H   0  0  0  0  0  0  0  0  0  0  0  0
    2.0000   -2.1120    0.0000 H   0  0  0  0  0  0  0  0  0  0  0  0
  1 16  1  0  0  0  0
  1 18  1  0  0  0  0
  8  2  1  6  0  0  0
  2 38  1  0  0  0  0
  3 17  2  0  0  0  0
  4 28  1  0  0  0  0
  4 47  1  0  0  0  0
  5  9  1  0  0  0  0
  5 11  1  0  0  0  0
  5 12  1  0  0  0  0
  6 13  1  0  0  0  0
  6 17  1  0  0  0  0
  6 39  1  0  0  0  0
  7 13  2  0  0  0  0
  7 14  1  0  0  0  0
  8  9  1  0  0  0  0
  8 10  1  0  0  0  0
  8 29  1  0  0  0  0
  9 30  1  0  0  0  0
  9 31  1  0  0  0  0
 10 11  1  0  0  0  0
 10 32  1  0  0  0  0
 10 33  1  0  0  0  0
 11 34  1  0  0  0  0
 11 35  1  0  0  0  0
 12 13  1  0  0  0  0
 12 36  1  0  0  0  0
 12 37  1  0  0  0  0
 14 15  1  0  0  0  0
 14 16  2  0  0  0  0
 15 18  2  0  0  0  0
 15 19  1  0  0  0  0
 16 17  1  0  0  0  0
 18 21  1  0  0  0  0
 19 20  2  0  0  0  0
 19 40  1  0  0  0  0
 20 22  1  0  0  0  0
 20 23  1  0  0  0  0
 21 22  2  0  0  0  0
 21 41  1  0  0  0  0
 22 42  1  0  0  0  0
 23 24  2  0  0  0  0
 23 25  1  0  0  0  0
 24 26  1  0  0  0  0
 24 43  1  0  0  0  0
 25 27  2  0  0  0  0
 25 44  1  0  0  0  0
 26 28  2  0  0  0  0
 26 45  1  0  0  0  0
 27 28  1  0  0  0  0
 27 46  1  0  0  0  0
M  END
> <PUBCHEM_COMPOUND_CID>
135927974

> <PUBCHEM_COMPOUND_CANONICALIZED>
1

> <PUBCHEM_CACTVS_COMPLEXITY>
636

> <PUBCHEM_CACTVS_HBOND_ACCEPTOR>
6

> <PUBCHEM_CACTVS_HBOND_DONOR>
3

> <PUBCHEM_CACTVS_ROTATABLE_BOND>
3

> <PUBCHEM_CACTVS_SUBSKEYS>
AAADceB7MABAAAAAAAAAAAAAAAAAAWJAAAAwYIAAAAAAAEgB9AAAHgQQCAAADBzh2AYxx8PAAgisAidydACDAIEkKBBJiB0eTMgKdjqi3ZOUcYxm1BG42UeYyPCOsAACAAAEAABgAAQAAAgAAAAAAAAAAA==

> <PUBCHEM_IUPAC_OPENEYE_NAME>
8-(4-hydroxyphenyl)-2-[[(3S)-3-hydroxypyrrolidin-1-yl]methyl]-3H-benzothiopheno[3,2-d]pyrimidin-4-one

> <PUBCHEM_IUPAC_CAS_NAME>
8-(4-hydroxyphenyl)-2-[[(3S)-3-hydroxy-1-pyrrolidinyl]methyl]-3H-[1]benzothiolo[3,2-d]pyrimidin-4-one

> <PUBCHEM_IUPAC_NAME_MARKUP>
8-(4-hydroxyphenyl)-2-[[(3<I>S</I>)-3-hydroxypyrrolidin-1-yl]methyl]-3<I>H</I>-[1]benzothiolo[3,2-d]pyrimidin-4-one

> <PUBCHEM_IUPAC_NAME>
8-(4-hydroxyphenyl)-2-[[(3S)-3-hydroxypyrrolidin-1-yl]methyl]-3H-[1]benzothiolo[3,2-d]pyrimidin-4-one

> <PUBCHEM_IUPAC_SYSTEMATIC_NAME>
8-(4-hydroxyphenyl)-2-[[(3S)-3-oxidanylpyrrolidin-1-yl]methyl]-3H-[1]benzothiolo[3,2-d]pyrimidin-4-one

> <PUBCHEM_IUPAC_TRADITIONAL_NAME>
8-(4-hydroxyphenyl)-2-[[(3S)-3-hydroxypyrrolidino]methyl]-3H-benzothiopheno[3,2-d]pyrimidin-4-one

> <PUBCHEM_IUPAC_INCHI>
InChI=1S/C21H19N3O3S/c25-14-4-1-12(2-5-14)13-3-6-17-16(9-13)19-20(28-17)21(27)23-18(22-19)11-24-8-7-15(26)10-24/h1-6,9,15,25-26H,7-8,10-11H2,(H,22,23,27)/t15-/m0/s1

> <PUBCHEM_IUPAC_INCHIKEY>
UPKYTOHUEMELIK-HNNXBMFYSA-N

> <PUBCHEM_XLOGP3_AA>
2.9

> <PUBCHEM_EXACT_MASS>
393.11471265

> <PUBCHEM_MOLECULAR_FORMULA>
C21H19N3O3S

> <PUBCHEM_MOLECULAR_WEIGHT>
393.5

> <PUBCHEM_SMILES>
C1CN(C[C@H]1O)CC2=NC3=C(C(=O)N2)SC4=C3C=C(C=C4)C5=CC=C(C=C5)O

> <PUBCHEM_OPENEYE_CAN_SMILES>
C1CN(CC1O)CC2=NC3=C(C(=O)N2)SC4=C3C=C(C=C4)C5=CC=C(C=C5)O

> <PUBCHEM_OPENEYE_ISO_SMILES>
C1CN(C[C@H]1O)CC2=NC3=C(C(=O)N2)SC4=C3C=C(C=C4)C5=CC=C(C=C5)O

> <PUBCHEM_CACTVS_TPSA>
113

> <PUBCHEM_MONOISOTOPIC_WEIGHT>
393.11471265

> <PUBCHEM_TOTAL_CHARGE>
0

> <PUBCHEM_HEAVY_ATOM_COUNT>
28

> <PUBCHEM_ATOM_DEF_STEREO_COUNT>
1

> <PUBCHEM_ATOM_UDEF_STEREO_COUNT>
0

> <PUBCHEM_BOND_DEF_STEREO_COUNT>
0

> <PUBCHEM_BOND_UDEF_STEREO_COUNT>
0

> <PUBCHEM_ISOTOPIC_ATOM_COUNT>
0

> <PUBCHEM_COMPONENT_COUNT>
1

> <PUBCHEM_CACTVS_TAUTO_COUNT>
-1

> <PUBCHEM_COORDINATE_TYPE>
1
5
255

> <PUBCHEM_BONDANNOTATIONS>
1  16  8
1  18  8
14  15  8
14  16  8
15  18  8
15  19  8
16  17  8
18  21  8
19  20  8
8  2  6
20  22  8
21  22  8
23  24  8
23  25  8
24  26  8
25  27  8
26  28  8
27  28  8
6  13  8
6  17  8
7  13  8
7  14  8

$$$$
