44340902
  -OEChem-03192523222D

 72 78  0     1  0  0  0  0  0999 V2000
    5.0389    0.6232    0.0000 O   0  0  0  0  0  0  0  0  0  0  0  0
    4.9924   -2.0222    0.0000 O   0  0  0  0  0  0  0  0  0  0  0  0
    3.0354   -1.6097    0.0000 O   0  0  0  0  0  0  0  0  0  0  0  0
    2.4141    0.2913    0.0000 O   0  0  0  0  0  0  0  0  0  0  0  0
    2.7712    1.9861    0.0000 O   0  0  0  0  0  0  0  0  0  0  0  0
   10.0540   -1.1217    0.0000 O   0  0  0  0  0  0  0  0  0  0  0  0
   10.0540    2.3888    0.0000 O   0  0  0  0  0  0  0  0  0  0  0  0
    8.5182   -3.9231    0.0000 O   0  0  0  0  0  0  0  0  0  0  0  0
    5.3010    3.7395    0.0000 O   0  0  0  0  0  0  0  0  0  0  0  0
   13.3270    2.3656    0.0000 O   0  0  0  0  0  0  0  0  0  0  0  0
   11.8270    3.2316    0.0000 O   0  0  0  0  0  0  0  0  0  0  0  0
    6.3281   -0.5336    0.0000 N   0  0  0  0  0  0  0  0  0  0  0  0
    6.3281    1.8006    0.0000 N   0  0  0  0  0  0  0  0  0  0  0  0
   10.3270    0.6335    0.0000 N   0  0  0  0  0  0  0  0  0  0  0  0
   11.3270    0.6335    0.0000 N   0  0  0  0  0  0  0  0  0  0  0  0
    5.3496   -0.3273    0.0000 C   0  0  3  0  0  0  0  0  0  0  0  0
    4.6817   -1.0716    0.0000 C   0  0  3  0  0  0  0  0  0  0  0  0
    7.0651    0.1335    0.0000 C   0  0  0  0  0  0  0  0  0  0  0  0
    3.7032   -0.8654    0.0000 C   0  0  3  0  0  0  0  0  0  0  0  0
    3.3926    0.0851    0.0000 C   0  0  3  0  0  0  0  0  0  0  0  0
    7.9311   -0.3665    0.0000 C   0  0  0  0  0  0  0  0  0  0  0  0
    4.0604    0.8294    0.0000 C   0  0  3  0  0  0  0  0  0  0  0  0
    6.7332   -1.4413    0.0000 C   0  0  0  0  0  0  0  0  0  0  0  0
    7.0651    1.1335    0.0000 C   0  0  0  0  0  0  0  0  0  0  0  0
    7.7219   -1.3383    0.0000 C   0  0  0  0  0  0  0  0  0  0  0  0
    8.7972    0.1335    0.0000 C   0  0  0  0  0  0  0  0  0  0  0  0
    7.9311    1.6335    0.0000 C   0  0  0  0  0  0  0  0  0  0  0  0
    8.7972    1.1335    0.0000 C   0  0  0  0  0  0  0  0  0  0  0  0
    7.7219    2.6054    0.0000 C   0  0  0  0  0  0  0  0  0  0  0  0
    3.7498    1.7799    0.0000 C   0  0  0  0  0  0  0  0  0  0  0  0
    6.7332    2.7084    0.0000 C   0  0  0  0  0  0  0  0  0  0  0  0
    9.7434   -0.1712    0.0000 C   0  0  0  0  0  0  0  0  0  0  0  0
    6.2967   -2.3803    0.0000 C   0  0  0  0  0  0  0  0  0  0  0  0
    9.7434    1.4383    0.0000 C   0  0  0  0  0  0  0  0  0  0  0  0
    8.3427   -2.1670    0.0000 C   0  0  0  0  0  0  0  0  0  0  0  0
    6.8981   -3.2232    0.0000 C   0  0  0  0  0  0  0  0  0  0  0  0
    7.9280   -3.1158    0.0000 C   0  0  0  0  0  0  0  0  0  0  0  0
    8.3427    3.4341    0.0000 C   0  0  0  0  0  0  0  0  0  0  0  0
    6.2967    3.6474    0.0000 C   0  0  0  0  0  0  0  0  0  0  0  0
   11.8270    1.4996    0.0000 C   0  0  0  0  0  0  0  0  0  0  0  0
    7.9280    4.3829    0.0000 C   0  0  0  0  0  0  0  0  0  0  0  0
    6.8981    4.4903    0.0000 C   0  0  0  0  0  0  0  0  0  0  0  0
   12.8270    1.4996    0.0000 C   0  0  0  0  0  0  0  0  0  0  0  0
   11.3270    2.3656    0.0000 C   0  0  0  0  0  0  0  0  0  0  0  0
    5.7636    0.1341    0.0000 H   0  0  0  0  0  0  0  0  0  0  0  0
    5.2884   -1.1995    0.0000 H   0  0  0  0  0  0  0  0  0  0  0  0
    4.1173   -0.4040    0.0000 H   0  0  0  0  0  0  0  0  0  0  0  0
    2.9785   -0.3764    0.0000 H   0  0  0  0  0  0  0  0  0  0  0  0
    4.4745    1.2909    0.0000 H   0  0  0  0  0  0  0  0  0  0  0  0
    4.3636    1.8673    0.0000 H   0  0  0  0  0  0  0  0  0  0  0  0
    3.7703    2.3996    0.0000 H   0  0  0  0  0  0  0  0  0  0  0  0
    5.7214    1.6728    0.0000 H   0  0  0  0  0  0  0  0  0  0  0  0
    5.6793   -2.4374    0.0000 H   0  0  0  0  0  0  0  0  0  0  0  0
    8.9586   -2.0956    0.0000 H   0  0  0  0  0  0  0  0  0  0  0  0
    4.5783   -2.4836    0.0000 H   0  0  0  0  0  0  0  0  0  0  0  0
    2.4287   -1.4819    0.0000 H   0  0  0  0  0  0  0  0  0  0  0  0
    2.0000   -0.1701    0.0000 H   0  0  0  0  0  0  0  0  0  0  0  0
    6.6433   -3.7884    0.0000 H   0  0  0  0  0  0  0  0  0  0  0  0
    8.9586    3.3627    0.0000 H   0  0  0  0  0  0  0  0  0  0  0  0
   11.6370    0.0966    0.0000 H   0  0  0  0  0  0  0  0  0  0  0  0
   12.1370    0.9626    0.0000 H   0  0  0  0  0  0  0  0  0  0  0  0
    2.5786    2.5755    0.0000 H   0  0  0  0  0  0  0  0  0  0  0  0
    8.2939    4.8834    0.0000 H   0  0  0  0  0  0  0  0  0  0  0  0
    6.6433    5.0555    0.0000 H   0  0  0  0  0  0  0  0  0  0  0  0
   12.7193    0.8890    0.0000 H   0  0  0  0  0  0  0  0  0  0  0  0
   13.4096    1.2875    0.0000 H   0  0  0  0  0  0  0  0  0  0  0  0
   10.8520    2.7641    0.0000 H   0  0  0  0  0  0  0  0  0  0  0  0
   10.8520    1.9670    0.0000 H   0  0  0  0  0  0  0  0  0  0  0  0
    8.2677   -4.4903    0.0000 H   0  0  0  0  0  0  0  0  0  0  0  0
    5.0418    4.3027    0.0000 H   0  0  0  0  0  0  0  0  0  0  0  0
   13.9470    2.3656    0.0000 H   0  0  0  0  0  0  0  0  0  0  0  0
   11.5170    3.7685    0.0000 H   0  0  0  0  0  0  0  0  0  0  0  0
  1 16  1  0  0  0  0
  1 22  1  0  0  0  0
  2 17  1  0  0  0  0
  2 55  1  0  0  0  0
  3 19  1  0  0  0  0
  3 56  1  0  0  0  0
  4 20  1  0  0  0  0
  4 57  1  0  0  0  0
  5 30  1  0  0  0  0
  5 62  1  0  0  0  0
  6 32  2  0  0  0  0
  7 34  2  0  0  0  0
  8 37  1  0  0  0  0
  8 69  1  0  0  0  0
  9 39  1  0  0  0  0
  9 70  1  0  0  0  0
 10 43  1  0  0  0  0
 10 71  1  0  0  0  0
 11 44  1  0  0  0  0
 11 72  1  0  0  0  0
 12 16  1  0  0  0  0
 12 18  1  0  0  0  0
 12 23  1  0  0  0  0
 13 24  1  0  0  0  0
 13 31  1  0  0  0  0
 13 52  1  0  0  0  0
 14 15  1  0  0  0  0
 14 32  1  0  0  0  0
 14 34  1  0  0  0  0
 15 40  1  0  0  0  0
 15 60  1  0  0  0  0
 16 17  1  0  0  0  0
 16 45  1  0  0  0  0
 17 19  1  0  0  0  0
 17 46  1  0  0  0  0
 18 21  1  0  0  0  0
 18 24  2  0  0  0  0
 19 20  1  0  0  0  0
 19 47  1  0  0  0  0
 20 22  1  0  0  0  0
 20 48  1  0  0  0  0
 21 25  1  0  0  0  0
 21 26  2  0  0  0  0
 22 30  1  0  0  0  0
 22 49  1  0  0  0  0
 23 25  2  0  0  0  0
 23 33  1  0  0  0  0
 24 27  1  0  0  0  0
 25 35  1  0  0  0  0
 26 28  1  0  0  0  0
 26 32  1  0  0  0  0
 27 28  2  0  0  0  0
 27 29  1  0  0  0  0
 28 34  1  0  0  0  0
 29 31  2  0  0  0  0
 29 38  1  0  0  0  0
 30 50  1  0  0  0  0
 30 51  1  0  0  0  0
 31 39  1  0  0  0  0
 33 36  2  0  0  0  0
 33 53  1  0  0  0  0
 35 37  2  0  0  0  0
 35 54  1  0  0  0  0
 36 37  1  0  0  0  0
 36 58  1  0  0  0  0
 38 41  2  0  0  0  0
 38 59  1  0  0  0  0
 39 42  2  0  0  0  0
 40 43  1  0  0  0  0
 40 44  1  0  0  0  0
 40 61  1  0  0  0  0
 41 42  1  0  0  0  0
 41 63  1  0  0  0  0
 42 64  1  0  0  0  0
 43 65  1  0  0  0  0
 43 66  1  0  0  0  0
 44 67  1  0  0  0  0
 44 68  1  0  0  0  0
M  END
> <PUBCHEM_COMPOUND_CID>
44340902

> <PUBCHEM_COMPOUND_CANONICALIZED>
1

> <PUBCHEM_CACTVS_COMPLEXITY>
1120

> <PUBCHEM_CACTVS_HBOND_ACCEPTOR>
12

> <PUBCHEM_CACTVS_HBOND_DONOR>
10

> <PUBCHEM_CACTVS_ROTATABLE_BOND>
6

> <PUBCHEM_CACTVS_SUBSKEYS>
AAADceB7vAAAAAAAAAAAAAAAAAAAAWLFgAA0YMEAAAAAAFgB/gAAHgAYCAAADDzhngYwxvPvlgCoAyVyVASCgCQlciAa+aE/fNgLdvLSlZOecQhn1DHb2Qf9+feeyEADQAASECCQgAaAACQgQAAAAAAAAA==

> <PUBCHEM_IUPAC_OPENEYE_NAME>
7,21-dihydroxy-13-[[2-hydroxy-1-(hydroxymethyl)ethyl]amino]-3-[3,4,5-trihydroxy-6-(hydroxymethyl)tetrahydropyran-2-yl]-3,13,23-triazahexacyclo[14.7.0.02,10.04,9.011,15.017,22]tricosa-1,4(9),5,7,10,15,17(22),18,20-nonaene-12,14-dione

> <PUBCHEM_IUPAC_CAS_NAME>
13-(1,3-dihydroxypropan-2-ylamino)-7,21-dihydroxy-3-[3,4,5-trihydroxy-6-(hydroxymethyl)-2-oxanyl]-3,13,23-triazahexacyclo[14.7.0.02,10.04,9.011,15.017,22]tricosa-1,4(9),5,7,10,15,17(22),18,20-nonaene-12,14-dione

> <PUBCHEM_IUPAC_NAME_MARKUP>
13-(1,3-dihydroxypropan-2-ylamino)-7,21-dihydroxy-3-[3,4,5-trihydroxy-6-(hydroxymethyl)oxan-2-yl]-3,13,23-triazahexacyclo[14.7.0.0<SUP>2,10</SUP>.0<SUP>4,9</SUP>.0<SUP>11,15</SUP>.0<SUP>17,22</SUP>]tricosa-1,4(9),5,7,10,15,17(22),18,20-nonaene-12,14-dione

> <PUBCHEM_IUPAC_NAME>
13-(1,3-dihydroxypropan-2-ylamino)-7,21-dihydroxy-3-[3,4,5-trihydroxy-6-(hydroxymethyl)oxan-2-yl]-3,13,23-triazahexacyclo[14.7.0.02,10.04,9.011,15.017,22]tricosa-1,4(9),5,7,10,15,17(22),18,20-nonaene-12,14-dione

> <PUBCHEM_IUPAC_SYSTEMATIC_NAME>
13-[1,3-bis(oxidanyl)propan-2-ylamino]-3-[6-(hydroxymethyl)-3,4,5-tris(oxidanyl)oxan-2-yl]-7,21-bis(oxidanyl)-3,13,23-triazahexacyclo[14.7.0.02,10.04,9.011,15.017,22]tricosa-1,4(9),5,7,10,15,17(22),18,20-nonaene-12,14-dione

> <PUBCHEM_IUPAC_TRADITIONAL_NAME>
7,21-dihydroxy-13-[(2-hydroxy-1-methylol-ethyl)amino]-3-(3,4,5-trihydroxy-6-methylol-tetrahydropyran-2-yl)-3,13,23-triazahexacyclo[14.7.0.02,10.04,9.011,15.017,22]tricosa-1,4(9),5,7,10,15,17(22),18,20-nonaene-12,14-quinone

> <PUBCHEM_IUPAC_INCHI>
InChI=1S/C29H28N4O11/c34-7-10(8-35)31-33-27(42)19-17-12-2-1-3-15(38)21(12)30-22(17)23-18(20(19)28(33)43)13-6-11(37)4-5-14(13)32(23)29-26(41)25(40)24(39)16(9-36)44-29/h1-6,10,16,24-26,29-31,34-41H,7-9H2

> <PUBCHEM_IUPAC_INCHIKEY>
SJNJBNZBLULWCX-UHFFFAOYSA-N

> <PUBCHEM_XLOGP3_AA>
-0.7

> <PUBCHEM_EXACT_MASS>
608.17545772

> <PUBCHEM_MOLECULAR_FORMULA>
C29H28N4O11

> <PUBCHEM_MOLECULAR_WEIGHT>
608.6

> <PUBCHEM_SMILES>
C1=CC2=C(C(=C1)O)NC3=C4C(=C5C(=C23)C(=O)N(C5=O)NC(CO)CO)C6=C(N4C7C(C(C(C(O7)CO)O)O)O)C=CC(=C6)O

> <PUBCHEM_OPENEYE_CAN_SMILES>
C1=CC2=C(C(=C1)O)NC3=C4C(=C5C(=C23)C(=O)N(C5=O)NC(CO)CO)C6=C(N4C7C(C(C(C(O7)CO)O)O)O)C=CC(=C6)O

> <PUBCHEM_OPENEYE_ISO_SMILES>
C1=CC2=C(C(=C1)O)NC3=C4C(=C5C(=C23)C(=O)N(C5=O)NC(CO)CO)C6=C(N4C7C(C(C(C(O7)CO)O)O)O)C=CC(=C6)O

> <PUBCHEM_CACTVS_TPSA>
241

> <PUBCHEM_MONOISOTOPIC_WEIGHT>
608.17545772

> <PUBCHEM_TOTAL_CHARGE>
0

> <PUBCHEM_HEAVY_ATOM_COUNT>
44

> <PUBCHEM_ATOM_DEF_STEREO_COUNT>
0

> <PUBCHEM_ATOM_UDEF_STEREO_COUNT>
5

> <PUBCHEM_BOND_DEF_STEREO_COUNT>
0

> <PUBCHEM_BOND_UDEF_STEREO_COUNT>
0

> <PUBCHEM_ISOTOPIC_ATOM_COUNT>
0

> <PUBCHEM_COMPONENT_COUNT>
1

> <PUBCHEM_CACTVS_TAUTO_COUNT>
-1

> <PUBCHEM_COORDINATE_TYPE>
1
5
255

> <PUBCHEM_BONDANNOTATIONS>
16  12  3
12  18  8
12  23  8
13  24  8
13  31  8
18  21  8
18  24  8
17  2  3
21  25  8
21  26  8
22  30  3
23  25  8
23  33  8
24  27  8
25  35  8
26  28  8
27  28  8
27  29  8
29  31  8
29  38  8
19  3  3
31  39  8
33  36  8
35  37  8
36  37  8
38  41  8
39  42  8
20  4  3
41  42  8

$$$$
